<?xml version="1.0" encoding="UTF-8"?>

<!-- generated on 2023-04-29 21:22:50 by Eclipse SUMO marouter Version 1.16.0
<configuration xmlns:xsi="http://www.w3.org/2001/XMLSchema-instance" xsi:noNamespaceSchemaLocation="http://sumo.dlr.de/xsd/marouterConfiguration.xsd">

    <input>
        <net-file value="./configurations/maps/4corners_neighborhoods.net.xml"/>
        <route-files value="./configurations/Rounds/4corners_neighborhoods.net.xml-test-3/Trips_File.rou.xml"/>
    </input>

    <output>
        <output-file value="./015/Trips_File_015.rou.xml"/>
    </output>

    <processing>
        <max-iterations value="16"/>
    </processing>

</configuration>
-->

<routes xmlns:xsi="http://www.w3.org/2001/XMLSchema-instance" xsi:noNamespaceSchemaLocation="http://sumo.dlr.de/xsd/routes_file.xsd">
    <vehicle id="2" depart="1.00" type="DEFAULT_VEHTYPE" fromTaz="422688973" toTaz="-597602756#0" departLane="free" departSpeed="max">
        <routeDistribution>
            <route cost="114.11" probability="7.18750000" edges="422688973 422688971#1 422685653 45673101#0 229169572#1 229169572#5 44884821#0 -597602756#9 -597602756#3 -597602756#1 -597602756#0"/>
            <route cost="113.18" probability="15.81250000" edges="422688973 422688971#1 422685653 45673101#0 314681894#0 422685676 44884008#0 44884008#2 44884008#3 44884008#4 -597602756#3 -597602756#1 -597602756#0"/>
        </routeDistribution>
    </vehicle>
    <vehicle id="3" depart="2.00" type="DEFAULT_VEHTYPE" fromTaz="422685671#2" toTaz="-105681660#20" departLane="free" departSpeed="max">
        <routeDistribution>
            <route cost="108.68" probability="24.00000000" edges="422685671#2 422685679#0 229169572#1 229169572#5 44884821#0 597602755#0 -105681660#20"/>
        </routeDistribution>
    </vehicle>
    <vehicle id="5" depart="5.00" type="DEFAULT_VEHTYPE" fromTaz="-260998164#3" toTaz="-318908683#1" departLane="free" departSpeed="max">
        <routeDistribution>
            <route cost="47.14" probability="18.00000000" edges="-260998164#3 422685674 422685672 422685675#0 422685673 422685678#0 422685677#0 422685680#0 422685680#1 -318908683#1"/>
        </routeDistribution>
    </vehicle>
    <vehicle id="4" depart="5.00" type="DEFAULT_VEHTYPE" fromTaz="105681660#12" toTaz="918280984" departLane="free" departSpeed="max">
        <routeDistribution>
            <route cost="104.68" probability="1.68750000" edges="105681660#12 961870460 -44884821#12 229169572#6 422688975#0 918280984"/>
            <route cost="104.01" probability="25.31250000" edges="105681660#12 15456086#0 15456086#3 -45672404 15382203#0 261136889#0 918280984"/>
        </routeDistribution>
    </vehicle>
    <vehicle id="6" depart="5.00" type="DEFAULT_VEHTYPE" fromTaz="918280985" toTaz="-597602756#0" departLane="free" departSpeed="max">
        <routeDistribution>
            <route cost="117.34" probability="8.43750000" edges="918280985 422688971#1 422685653 45673101#0 229169572#1 229169572#5 44884821#0 -597602756#9 -597602756#3 -597602756#1 -597602756#0"/>
            <route cost="116.40" probability="18.56250000" edges="918280985 422688971#1 422685653 45673101#0 314681894#0 422685676 44884008#0 44884008#2 44884008#3 44884008#4 -597602756#3 -597602756#1 -597602756#0"/>
        </routeDistribution>
    </vehicle>
    <vehicle id="9" depart="7.00" type="DEFAULT_VEHTYPE" fromTaz="-260998164#3" toTaz="-597602756#0" departLane="free" departSpeed="max">
        <routeDistribution>
            <route cost="82.13" probability="20.00000000" edges="-260998164#3 15420484#0 15420484#1 15420484#2 15420484#3 15420484#4 15420484#5 -597602756#0"/>
        </routeDistribution>
    </vehicle>
    <vehicle id="8" depart="7.00" type="DEFAULT_VEHTYPE" fromTaz="105681660#12" toTaz="15374898#0-AddedOffRampEdge" departLane="free" departSpeed="max">
        <routeDistribution>
            <route cost="142.78" probability="4.75000000" edges="105681660#12 15456086#0 15456086#3 -45672404 15382203#0 261136889#0 422688971#1 422685653 15336469#0 15374898#0-AddedOnRampEdge 15374898#0 15374898#0-AddedOffRampEdge"/>
            <route cost="143.00" probability="14.25000000" edges="105681660#12 961870460 -597602756#9 -44884008#4 -44884008#3 -44884008#2 -44884008#1 422685677#0 422685680#0 422685680#1 15334555#0 15374898#0-AddedOnRampEdge 15374898#0 15374898#0-AddedOffRampEdge"/>
        </routeDistribution>
    </vehicle>
    <vehicle id="7" depart="7.00" type="DEFAULT_VEHTYPE" fromTaz="918280985" toTaz="-105681660#20" departLane="free" departSpeed="max">
        <routeDistribution>
            <route cost="102.84" probability="15.00000000" edges="918280985 261136891#3 -15382203#1 928260165 -15456086#2 -105681660#20"/>
        </routeDistribution>
    </vehicle>
    <vehicle id="10" depart="8.00" type="DEFAULT_VEHTYPE" fromTaz="105681660#12" toTaz="-597602753#1" departLane="free" departSpeed="max">
        <routeDistribution>
            <route cost="90.53" probability="18.00000000" edges="105681660#12 -597602753#13 -597602753#9 -597602753#2 -597602753#1"/>
        </routeDistribution>
    </vehicle>
    <vehicle id="11" depart="10.00" type="DEFAULT_VEHTYPE" fromTaz="105681660#12" toTaz="15374898#0-AddedOffRampEdge" departLane="free" departSpeed="max">
        <routeDistribution>
            <route cost="142.78" probability="4.75000000" edges="105681660#12 15456086#0 15456086#3 -45672404 15382203#0 261136889#0 422688971#1 422685653 15336469#0 15374898#0-AddedOnRampEdge 15374898#0 15374898#0-AddedOffRampEdge"/>
            <route cost="143.00" probability="14.25000000" edges="105681660#12 961870460 -597602756#9 -44884008#4 -44884008#3 -44884008#2 -44884008#1 422685677#0 422685680#0 422685680#1 15334555#0 15374898#0-AddedOnRampEdge 15374898#0 15374898#0-AddedOffRampEdge"/>
        </routeDistribution>
    </vehicle>
    <vehicle id="13" depart="12.00" type="DEFAULT_VEHTYPE" fromTaz="105681660#12" toTaz="918280984" departLane="free" departSpeed="max">
        <routeDistribution>
            <route cost="104.68" probability="1.68750000" edges="105681660#12 961870460 -44884821#12 229169572#6 422688975#0 918280984"/>
            <route cost="104.01" probability="25.31250000" edges="105681660#12 15456086#0 15456086#3 -45672404 15382203#0 261136889#0 918280984"/>
        </routeDistribution>
    </vehicle>
    <vehicle id="12" depart="12.00" type="DEFAULT_VEHTYPE" fromTaz="597602756#0" toTaz="-597602753#1" departLane="free" departSpeed="max">
        <routeDistribution>
            <route cost="98.94" probability="13.00000000" edges="597602756#0 597602756#1 597602756#2 597602756#4 597602755#0 -597602753#13 -597602753#9 -597602753#2 -597602753#1"/>
        </routeDistribution>
    </vehicle>
    <vehicle id="15" depart="13.00" type="DEFAULT_VEHTYPE" fromTaz="422685671#2" toTaz="260998164#0" departLane="free" departSpeed="max">
        <routeDistribution>
            <route cost="60.26" probability="21.00000000" edges="422685671#2 422685679#0 314681894#0 422685676 -422685678#1 -422685673 -422685675#1 -422685672 -422685674 260998164#0"/>
        </routeDistribution>
    </vehicle>
    <vehicle id="14" depart="13.00" type="DEFAULT_VEHTYPE" fromTaz="597602756#0" toTaz="918280984" departLane="free" departSpeed="max">
        <routeDistribution>
            <route cost="94.14" probability="15.00000000" edges="597602756#0 597602756#1 597602756#2 597602756#4 -44884821#12 229169572#6 422688975#0 918280984"/>
        </routeDistribution>
    </vehicle>
    <vehicle id="16" depart="14.00" type="DEFAULT_VEHTYPE" fromTaz="597602753#0" toTaz="260998164#0" departLane="free" departSpeed="max">
        <routeDistribution>
            <route cost="125.59" probability="15.75000000" edges="597602753#0 597602753#2 597602753#3 597602753#10 961870460 -597602756#9 -44884008#4 -44884008#3 -44884008#2 -44884008#1 -422685678#1 -422685673 -422685675#1 -422685672 -422685674 260998164#0"/>
            <route cost="125.34" probability="2.25000000" edges="597602753#0 597602753#2 597602753#3 597602753#10 961870460 -597602756#9 -597602756#3 -15395647 -15420484#3 -15420484#2 -15420484#1 -15420484#0 260998164#0"/>
        </routeDistribution>
    </vehicle>
    <vehicle id="17" depart="15.00" type="DEFAULT_VEHTYPE" fromTaz="918280985" toTaz="-597602753#1" departLane="free" departSpeed="max">
        <routeDistribution>
            <route cost="80.59" probability="9.56250000" edges="918280985 261136891#3 -15382203#1 928260165 -15456086#2 -597602753#13 -597602753#9 -597602753#2 -597602753#1"/>
            <route cost="79.67" probability="7.43750000" edges="918280985 261136891#3 -15382203#1 45672404 15456086#5 -597602753#2 -597602753#1"/>
        </routeDistribution>
    </vehicle>
    <vehicle id="18" depart="16.00" type="DEFAULT_VEHTYPE" fromTaz="422685671#2" toTaz="-105681660#20" departLane="free" departSpeed="max">
        <routeDistribution>
            <route cost="108.68" probability="24.00000000" edges="422685671#2 422685679#0 229169572#1 229169572#5 44884821#0 597602755#0 -105681660#20"/>
        </routeDistribution>
    </vehicle>
    <vehicle id="19" depart="17.00" type="DEFAULT_VEHTYPE" fromTaz="422685671#2" toTaz="918280984" departLane="free" departSpeed="max">
        <routeDistribution>
            <route cost="45.41" probability="19.00000000" edges="422685671#2 422685679#0 229169572#1 229169572#5 229169572#6 422688975#0 918280984"/>
        </routeDistribution>
    </vehicle>
    <vehicle id="20" depart="18.00" type="DEFAULT_VEHTYPE" fromTaz="597602753#0" toTaz="15374898#0-AddedOffRampEdge" departLane="free" departSpeed="max">
        <routeDistribution>
            <route cost="121.46" probability="4.50000000" edges="597602753#0 597602753#2 -15456086#10 -45672404 15382203#0 261136889#0 422688971#1 422685653 15336469#0 15374898#0-AddedOnRampEdge 15374898#0 15374898#0-AddedOffRampEdge"/>
            <route cost="121.65" probability="19.50000000" edges="597602753#0 597602753#2 597602753#3 597602753#10 961870460 -597602756#9 -44884008#4 -44884008#3 -44884008#2 -44884008#1 422685677#0 422685680#0 422685680#1 15334555#0 15374898#0-AddedOnRampEdge 15374898#0 15374898#0-AddedOffRampEdge"/>
        </routeDistribution>
    </vehicle>
    <vehicle id="21" depart="19.00" type="DEFAULT_VEHTYPE" fromTaz="422688973" toTaz="-597602753#1" departLane="free" departSpeed="max">
        <routeDistribution>
            <route cost="77.36" probability="15.75000000" edges="422688973 261136891#3 -15382203#1 928260165 -15456086#2 -597602753#13 -597602753#9 -597602753#2 -597602753#1"/>
            <route cost="76.44" probability="12.25000000" edges="422688973 261136891#3 -15382203#1 45672404 15456086#5 -597602753#2 -597602753#1"/>
        </routeDistribution>
    </vehicle>
    <vehicle id="22" depart="21.00" type="DEFAULT_VEHTYPE" fromTaz="597602753#0" toTaz="422688976#1" departLane="free" departSpeed="max">
        <routeDistribution>
            <route cost="91.56" probability="5.50000000" edges="597602753#0 597602753#2 597602753#3 597602753#10 961870460 -44884821#12 229169572#6 422688975#0 422688976#1"/>
            <route cost="90.93" probability="16.50000000" edges="597602753#0 597602753#2 -15456086#10 -45672404 15382203#0 261136889#0 422688976#1"/>
        </routeDistribution>
    </vehicle>
    <vehicle id="23" depart="22.00" type="DEFAULT_VEHTYPE" fromTaz="422685671#2" toTaz="422688976#1" departLane="free" departSpeed="max">
        <routeDistribution>
            <route cost="53.66" probability="21.00000000" edges="422685671#2 422685679#0 229169572#1 229169572#5 229169572#6 422688975#0 422688976#1"/>
        </routeDistribution>
    </vehicle>
    <vehicle id="24" depart="26.00" type="DEFAULT_VEHTYPE" fromTaz="422688973" toTaz="-105681660#20" departLane="free" departSpeed="max">
        <routeDistribution>
            <route cost="99.61" probability="22.00000000" edges="422688973 261136891#3 -15382203#1 928260165 -15456086#2 -105681660#20"/>
        </routeDistribution>
    </vehicle>
    <vehicle id="25" depart="29.00" type="DEFAULT_VEHTYPE" fromTaz="597602753#0" toTaz="-597602756#0" departLane="free" departSpeed="max">
        <routeDistribution>
            <route cost="108.43" probability="17.00000000" edges="597602753#0 597602753#2 597602753#3 597602753#10 961870460 -597602756#9 -597602756#3 -597602756#1 -597602756#0"/>
        </routeDistribution>
    </vehicle>
    <vehicle id="26" depart="30.00" type="DEFAULT_VEHTYPE" fromTaz="422685671#2" toTaz="918280984" departLane="free" departSpeed="max">
        <routeDistribution>
            <route cost="45.41" probability="19.00000000" edges="422685671#2 422685679#0 229169572#1 229169572#5 229169572#6 422688975#0 918280984"/>
        </routeDistribution>
    </vehicle>
    <vehicle id="27" depart="30.00" type="DEFAULT_VEHTYPE" fromTaz="597602756#0" toTaz="918280984" departLane="free" departSpeed="max">
        <routeDistribution>
            <route cost="94.14" probability="15.00000000" edges="597602756#0 597602756#1 597602756#2 597602756#4 -44884821#12 229169572#6 422688975#0 918280984"/>
        </routeDistribution>
    </vehicle>
    <vehicle id="28" depart="31.00" type="DEFAULT_VEHTYPE" fromTaz="918280985" toTaz="260998164#0" departLane="free" departSpeed="max">
        <routeDistribution>
            <route cost="70.86" probability="26.00000000" edges="918280985 422688971#1 422685653 45673101#0 314681894#0 422685676 -422685678#1 -422685673 -422685675#1 -422685672 -422685674 260998164#0"/>
        </routeDistribution>
    </vehicle>
    <vehicle id="30" depart="33.00" type="DEFAULT_VEHTYPE" fromTaz="105681660#12" toTaz="422688976#1" departLane="free" departSpeed="max">
        <routeDistribution>
            <route cost="112.92" probability="1.12500000" edges="105681660#12 961870460 -44884821#12 229169572#6 422688975#0 422688976#1"/>
            <route cost="112.25" probability="16.87500000" edges="105681660#12 15456086#0 15456086#3 -45672404 15382203#0 261136889#0 422688976#1"/>
        </routeDistribution>
    </vehicle>
    <vehicle id="29" depart="33.00" type="DEFAULT_VEHTYPE" fromTaz="318908683#0" toTaz="260998164#0" departLane="free" departSpeed="max">
        <routeDistribution>
            <route cost="49.42" probability="26.00000000" edges="318908683#0 314681894#0 422685676 -422685678#1 -422685673 -422685675#1 -422685672 -422685674 260998164#0"/>
        </routeDistribution>
    </vehicle>
    <vehicle id="31" depart="35.00" type="DEFAULT_VEHTYPE" fromTaz="422688973" toTaz="-597602753#1" departLane="free" departSpeed="max">
        <routeDistribution>
            <route cost="77.36" probability="15.75000000" edges="422688973 261136891#3 -15382203#1 928260165 -15456086#2 -597602753#13 -597602753#9 -597602753#2 -597602753#1"/>
            <route cost="76.44" probability="12.25000000" edges="422688973 261136891#3 -15382203#1 45672404 15456086#5 -597602753#2 -597602753#1"/>
        </routeDistribution>
    </vehicle>
    <vehicle id="32" depart="37.00" type="DEFAULT_VEHTYPE" fromTaz="-260998164#3" toTaz="-597602753#1" departLane="free" departSpeed="max">
        <routeDistribution>
            <route cost="107.57" probability="3.25000000" edges="-260998164#3 422685674 422685672 422685675#0 422685673 422685678#0 422685677#0 422685680#0 260994551#0 229169572#5 44884821#0 597602755#0 -597602753#13 -597602753#9 -597602753#2 -597602753#1"/>
            <route cost="107.61" probability="9.75000000" edges="-260998164#3 422685674 422685672 422685675#0 422685673 422685678#0 422685677#0 422685680#0 422685680#1 229169572#1 229169572#5 44884821#0 597602755#0 -597602753#13 -597602753#9 -597602753#2 -597602753#1"/>
        </routeDistribution>
    </vehicle>
    <vehicle id="33" depart="38.00" type="DEFAULT_VEHTYPE" fromTaz="597602756#0" toTaz="-105681660#20" departLane="free" departSpeed="max">
        <routeDistribution>
            <route cost="121.19" probability="22.00000000" edges="597602756#0 597602756#1 597602756#2 597602756#4 597602755#0 -105681660#20"/>
        </routeDistribution>
    </vehicle>
    <vehicle id="34" depart="40.00" type="DEFAULT_VEHTYPE" fromTaz="105681660#12" toTaz="918280984" departLane="free" departSpeed="max">
        <routeDistribution>
            <route cost="104.68" probability="1.68750000" edges="105681660#12 961870460 -44884821#12 229169572#6 422688975#0 918280984"/>
            <route cost="104.01" probability="25.31250000" edges="105681660#12 15456086#0 15456086#3 -45672404 15382203#0 261136889#0 918280984"/>
        </routeDistribution>
    </vehicle>
    <vehicle id="35" depart="41.00" type="DEFAULT_VEHTYPE" fromTaz="105681660#12" toTaz="-318908683#1" departLane="free" departSpeed="max">
        <routeDistribution>
            <route cost="131.49" probability="0.75000000" edges="105681660#12 15456086#0 15456086#3 -45672404 15382203#0 261136889#0 422688971#1 422685653 45673101#0 -318908683#1"/>
            <route cost="131.17" probability="11.25000000" edges="105681660#12 961870460 -597602756#9 -44884008#4 -44884008#3 -44884008#2 -44884008#1 422685677#0 422685680#0 422685680#1 -318908683#1"/>
        </routeDistribution>
    </vehicle>
    <vehicle id="36" depart="44.00" type="DEFAULT_VEHTYPE" fromTaz="318908683#0" toTaz="422688976#1" departLane="free" departSpeed="max">
        <routeDistribution>
            <route cost="42.82" probability="21.00000000" edges="318908683#0 229169572#1 229169572#5 229169572#6 422688975#0 422688976#1"/>
        </routeDistribution>
    </vehicle>
    <vehicle id="37" depart="44.00" type="DEFAULT_VEHTYPE" fromTaz="597602753#0" toTaz="422688976#1" departLane="free" departSpeed="max">
        <routeDistribution>
            <route cost="91.56" probability="5.50000000" edges="597602753#0 597602753#2 597602753#3 597602753#10 961870460 -44884821#12 229169572#6 422688975#0 422688976#1"/>
            <route cost="90.93" probability="16.50000000" edges="597602753#0 597602753#2 -15456086#10 -45672404 15382203#0 261136889#0 422688976#1"/>
        </routeDistribution>
    </vehicle>
    <vehicle id="38" depart="49.00" type="DEFAULT_VEHTYPE" fromTaz="422685671#2" toTaz="260998164#0" departLane="free" departSpeed="max">
        <routeDistribution>
            <route cost="60.26" probability="21.00000000" edges="422685671#2 422685679#0 314681894#0 422685676 -422685678#1 -422685673 -422685675#1 -422685672 -422685674 260998164#0"/>
        </routeDistribution>
    </vehicle>
    <vehicle id="39" depart="49.00" type="DEFAULT_VEHTYPE" fromTaz="422688973" toTaz="-105681660#20" departLane="free" departSpeed="max">
        <routeDistribution>
            <route cost="99.61" probability="22.00000000" edges="422688973 261136891#3 -15382203#1 928260165 -15456086#2 -105681660#20"/>
        </routeDistribution>
    </vehicle>
    <vehicle id="40" depart="49.00" type="DEFAULT_VEHTYPE" fromTaz="597602756#0" toTaz="260998164#0" departLane="free" departSpeed="max">
        <routeDistribution>
            <route cost="79.74" probability="15.00000000" edges="597602756#0 -15420484#6 -15420484#4 -15420484#3 -15420484#2 -15420484#1 -15420484#0 260998164#0"/>
        </routeDistribution>
    </vehicle>
    <vehicle id="41" depart="50.00" type="DEFAULT_VEHTYPE" fromTaz="597602753#0" toTaz="15374898#0-AddedOffRampEdge" departLane="free" departSpeed="max">
        <routeDistribution>
            <route cost="121.46" probability="4.50000000" edges="597602753#0 597602753#2 -15456086#10 -45672404 15382203#0 261136889#0 422688971#1 422685653 15336469#0 15374898#0-AddedOnRampEdge 15374898#0 15374898#0-AddedOffRampEdge"/>
            <route cost="121.65" probability="19.50000000" edges="597602753#0 597602753#2 597602753#3 597602753#10 961870460 -597602756#9 -44884008#4 -44884008#3 -44884008#2 -44884008#1 422685677#0 422685680#0 422685680#1 15334555#0 15374898#0-AddedOnRampEdge 15374898#0 15374898#0-AddedOffRampEdge"/>
        </routeDistribution>
    </vehicle>
    <vehicle id="42" depart="51.00" type="DEFAULT_VEHTYPE" fromTaz="422688973" toTaz="-318908683#1" departLane="free" departSpeed="max">
        <routeDistribution>
            <route cost="33.34" probability="22.00000000" edges="422688973 422688971#1 422685653 45673101#0 -318908683#1"/>
        </routeDistribution>
    </vehicle>
    <vehicle id="44" depart="54.00" type="DEFAULT_VEHTYPE" fromTaz="-260998164#3" toTaz="918280984" departLane="free" departSpeed="max">
        <routeDistribution>
            <route cost="66.55" probability="4.25000000" edges="-260998164#3 422685674 422685672 422685675#0 422685673 422685678#0 422685677#0 422685680#0 260994551#0 229169572#5 229169572#6 422688975#0 918280984"/>
            <route cost="66.59" probability="12.75000000" edges="-260998164#3 422685674 422685672 422685675#0 422685673 422685678#0 422685677#0 422685680#0 422685680#1 229169572#1 229169572#5 229169572#6 422688975#0 918280984"/>
        </routeDistribution>
    </vehicle>
    <vehicle id="43" depart="54.00" type="DEFAULT_VEHTYPE" fromTaz="422688973" toTaz="-597602753#1" departLane="free" departSpeed="max">
        <routeDistribution>
            <route cost="77.36" probability="15.75000000" edges="422688973 261136891#3 -15382203#1 928260165 -15456086#2 -597602753#13 -597602753#9 -597602753#2 -597602753#1"/>
            <route cost="76.44" probability="12.25000000" edges="422688973 261136891#3 -15382203#1 45672404 15456086#5 -597602753#2 -597602753#1"/>
        </routeDistribution>
    </vehicle>
    <vehicle id="45" depart="56.00" type="DEFAULT_VEHTYPE" fromTaz="105681660#12" toTaz="260998164#0" departLane="free" departSpeed="max">
        <routeDistribution>
            <route cost="146.95" probability="16.62500000" edges="105681660#12 961870460 -597602756#9 -44884008#4 -44884008#3 -44884008#2 -44884008#1 -422685678#1 -422685673 -422685675#1 -422685672 -422685674 260998164#0"/>
            <route cost="146.69" probability="2.37500000" edges="105681660#12 961870460 -597602756#9 -597602756#3 -15395647 -15420484#3 -15420484#2 -15420484#1 -15420484#0 260998164#0"/>
        </routeDistribution>
    </vehicle>
    <vehicle id="46" depart="56.00" type="DEFAULT_VEHTYPE" fromTaz="918280985" toTaz="-597602756#0" departLane="free" departSpeed="max">
        <routeDistribution>
            <route cost="117.34" probability="8.43750000" edges="918280985 422688971#1 422685653 45673101#0 229169572#1 229169572#5 44884821#0 -597602756#9 -597602756#3 -597602756#1 -597602756#0"/>
            <route cost="116.40" probability="18.56250000" edges="918280985 422688971#1 422685653 45673101#0 314681894#0 422685676 44884008#0 44884008#2 44884008#3 44884008#4 -597602756#3 -597602756#1 -597602756#0"/>
        </routeDistribution>
    </vehicle>
    <vehicle id="47" depart="57.00" type="DEFAULT_VEHTYPE" fromTaz="318908683#0" toTaz="260998164#0" departLane="free" departSpeed="max">
        <routeDistribution>
            <route cost="49.42" probability="26.00000000" edges="318908683#0 314681894#0 422685676 -422685678#1 -422685673 -422685675#1 -422685672 -422685674 260998164#0"/>
        </routeDistribution>
    </vehicle>
    <vehicle id="48" depart="60.00" type="DEFAULT_VEHTYPE" fromTaz="597602753#0" toTaz="918280984" departLane="free" departSpeed="max">
        <routeDistribution>
            <route cost="83.32" probability="4.25000000" edges="597602753#0 597602753#2 597602753#3 597602753#10 961870460 -44884821#12 229169572#6 422688975#0 918280984"/>
            <route cost="82.69" probability="12.75000000" edges="597602753#0 597602753#2 -15456086#10 -45672404 15382203#0 261136889#0 918280984"/>
        </routeDistribution>
    </vehicle>
    <vehicle id="49" depart="62.00" type="DEFAULT_VEHTYPE" fromTaz="597602753#0" toTaz="-597602756#0" departLane="free" departSpeed="max">
        <routeDistribution>
            <route cost="108.43" probability="17.00000000" edges="597602753#0 597602753#2 597602753#3 597602753#10 961870460 -597602756#9 -597602756#3 -597602756#1 -597602756#0"/>
        </routeDistribution>
    </vehicle>
    <vehicle id="50" depart="63.00" type="DEFAULT_VEHTYPE" fromTaz="318908683#0" toTaz="-105681660#20" departLane="free" departSpeed="max">
        <routeDistribution>
            <route cost="97.84" probability="17.00000000" edges="318908683#0 229169572#1 229169572#5 44884821#0 597602755#0 -105681660#20"/>
        </routeDistribution>
    </vehicle>
    <vehicle id="51" depart="63.00" type="DEFAULT_VEHTYPE" fromTaz="597602753#0" toTaz="260998164#0" departLane="free" departSpeed="max">
        <routeDistribution>
            <route cost="125.59" probability="15.75000000" edges="597602753#0 597602753#2 597602753#3 597602753#10 961870460 -597602756#9 -44884008#4 -44884008#3 -44884008#2 -44884008#1 -422685678#1 -422685673 -422685675#1 -422685672 -422685674 260998164#0"/>
            <route cost="125.34" probability="2.25000000" edges="597602753#0 597602753#2 597602753#3 597602753#10 961870460 -597602756#9 -597602756#3 -15395647 -15420484#3 -15420484#2 -15420484#1 -15420484#0 260998164#0"/>
        </routeDistribution>
    </vehicle>
    <vehicle id="52" depart="64.00" type="DEFAULT_VEHTYPE" fromTaz="422685671#2" toTaz="-105681660#20" departLane="free" departSpeed="max">
        <routeDistribution>
            <route cost="108.68" probability="24.00000000" edges="422685671#2 422685679#0 229169572#1 229169572#5 44884821#0 597602755#0 -105681660#20"/>
        </routeDistribution>
    </vehicle>
    <vehicle id="53" depart="64.00" type="DEFAULT_VEHTYPE" fromTaz="597602756#0" toTaz="15374898#0-AddedOffRampEdge" departLane="free" departSpeed="max">
        <routeDistribution>
            <route cost="106.23" probability="15.00000000" edges="597602756#0 597602756#1 597602756#2 -44884008#4 -44884008#3 -44884008#2 -44884008#1 422685677#0 422685680#0 422685680#1 15334555#0 15374898#0-AddedOnRampEdge 15374898#0 15374898#0-AddedOffRampEdge"/>
        </routeDistribution>
    </vehicle>
    <vehicle id="54" depart="65.00" type="DEFAULT_VEHTYPE" fromTaz="918280985" toTaz="-597602756#0" departLane="free" departSpeed="max">
        <routeDistribution>
            <route cost="117.34" probability="8.43750000" edges="918280985 422688971#1 422685653 45673101#0 229169572#1 229169572#5 44884821#0 -597602756#9 -597602756#3 -597602756#1 -597602756#0"/>
            <route cost="116.40" probability="18.56250000" edges="918280985 422688971#1 422685653 45673101#0 314681894#0 422685676 44884008#0 44884008#2 44884008#3 44884008#4 -597602756#3 -597602756#1 -597602756#0"/>
        </routeDistribution>
    </vehicle>
    <vehicle id="55" depart="66.00" type="DEFAULT_VEHTYPE" fromTaz="422688973" toTaz="-597602753#1" departLane="free" departSpeed="max">
        <routeDistribution>
            <route cost="77.36" probability="15.75000000" edges="422688973 261136891#3 -15382203#1 928260165 -15456086#2 -597602753#13 -597602753#9 -597602753#2 -597602753#1"/>
            <route cost="76.44" probability="12.25000000" edges="422688973 261136891#3 -15382203#1 45672404 15456086#5 -597602753#2 -597602753#1"/>
        </routeDistribution>
    </vehicle>
    <vehicle id="56" depart="67.00" type="DEFAULT_VEHTYPE" fromTaz="597602753#0" toTaz="-597602756#0" departLane="free" departSpeed="max">
        <routeDistribution>
            <route cost="108.43" probability="17.00000000" edges="597602753#0 597602753#2 597602753#3 597602753#10 961870460 -597602756#9 -597602756#3 -597602756#1 -597602756#0"/>
        </routeDistribution>
    </vehicle>
    <vehicle id="57" depart="67.00" type="DEFAULT_VEHTYPE" fromTaz="918280985" toTaz="260998164#0" departLane="free" departSpeed="max">
        <routeDistribution>
            <route cost="70.86" probability="26.00000000" edges="918280985 422688971#1 422685653 45673101#0 314681894#0 422685676 -422685678#1 -422685673 -422685675#1 -422685672 -422685674 260998164#0"/>
        </routeDistribution>
    </vehicle>
    <vehicle id="58" depart="68.00" type="DEFAULT_VEHTYPE" fromTaz="918280985" toTaz="-105681660#20" departLane="free" departSpeed="max">
        <routeDistribution>
            <route cost="102.84" probability="15.00000000" edges="918280985 261136891#3 -15382203#1 928260165 -15456086#2 -105681660#20"/>
        </routeDistribution>
    </vehicle>
    <vehicle id="59" depart="69.00" type="DEFAULT_VEHTYPE" fromTaz="105681660#12" toTaz="422688976#1" departLane="free" departSpeed="max">
        <routeDistribution>
            <route cost="112.92" probability="1.12500000" edges="105681660#12 961870460 -44884821#12 229169572#6 422688975#0 422688976#1"/>
            <route cost="112.25" probability="16.87500000" edges="105681660#12 15456086#0 15456086#3 -45672404 15382203#0 261136889#0 422688976#1"/>
        </routeDistribution>
    </vehicle>
    <vehicle id="60" depart="70.00" type="DEFAULT_VEHTYPE" fromTaz="597602756#0" toTaz="-318908683#1" departLane="free" departSpeed="max">
        <routeDistribution>
            <route cost="94.40" probability="20.00000000" edges="597602756#0 597602756#1 597602756#2 -44884008#4 -44884008#3 -44884008#2 -44884008#1 422685677#0 422685680#0 422685680#1 -318908683#1"/>
        </routeDistribution>
    </vehicle>
    <vehicle id="61" depart="72.00" type="DEFAULT_VEHTYPE" fromTaz="-260998164#3" toTaz="-597602756#0" departLane="free" departSpeed="max">
        <routeDistribution>
            <route cost="82.13" probability="20.00000000" edges="-260998164#3 15420484#0 15420484#1 15420484#2 15420484#3 15420484#4 15420484#5 -597602756#0"/>
        </routeDistribution>
    </vehicle>
    <vehicle id="62" depart="76.00" type="DEFAULT_VEHTYPE" fromTaz="105681660#12" toTaz="260998164#0" departLane="free" departSpeed="max">
        <routeDistribution>
            <route cost="146.95" probability="16.62500000" edges="105681660#12 961870460 -597602756#9 -44884008#4 -44884008#3 -44884008#2 -44884008#1 -422685678#1 -422685673 -422685675#1 -422685672 -422685674 260998164#0"/>