<?xml version="1.0" ?>
<routes xmlns:xsi="&quot;http://www.w3.org/2001/XMLSchema-instance&quot;" xsi:noNamespaceSchemaLocation="&quot;http://sumo.dlr.de/xsd/routes_file.xsd&quot;">
	<trip id="2" depart="1" from="105681660#12" to="-597602753#1"/>
	<trip id="3" depart="1" from="597602753#0" to="-318908683#1"/>
	<trip id="4" depart="2" from="597602756#0" to="-318908683#1"/>
	<trip id="5" depart="2" from="422688973" to="-597602756#0"/>
	<trip id="6" depart="3" from="-260998164#3" to="-105681660#20"/>
	<trip id="7" depart="7" from="597602753#0" to="-597602756#0"/>
	<trip id="8" depart="7" from="105681660#12" to="-597602753#1"/>
	<trip id="9" depart="8" from="318908683#0" to="-597602753#1"/>
	<trip id="10" depart="8" from="105681660#12" to="15374898#0-AddedOffRampEdge"/>
	<trip id="11" depart="10" from="-260998164#3" to="-597602753#1"/>
	<trip id="12" depart="10" from="597602756#0" to="-105681660#20"/>
	<trip id="13" depart="11" from="422685671#2" to="-597602753#1"/>
	<trip id="14" depart="11" from="918280985" to="-105681660#20"/>
	<trip id="15" depart="13" from="105681660#12" to="918280984"/>
	<trip id="16" depart="14" from="597602756#0" to="15374898#0-AddedOffRampEdge"/>
	<trip id="17" depart="14" from="597602756#0" to="15374898#0-AddedOffRampEdge"/>
	<trip id="18" depart="14" from="597602753#0" to="15374898#0-AddedOffRampEdge"/>
	<trip id="19" depart="16" from="318908683#0" to="-597602756#0"/>
	<trip id="20" depart="16" from="597602753#0" to="422688976#1"/>
	<trip id="21" depart="16" from="422688973" to="260998164#0"/>
	<trip id="22" depart="18" from="597602756#0" to="15374898#0-AddedOffRampEdge"/>
	<trip id="23" depart="18" from="422685671#2" to="918280984"/>
	<trip id="24" depart="21" from="597602753#0" to="15374898#0-AddedOffRampEdge"/>
	<trip id="25" depart="21" from="597602753#0" to="422688976#1"/>
	<trip id="26" depart="21" from="105681660#12" to="422688976#1"/>
	<trip id="27" depart="21" from="105681660#12" to="422688976#1"/>
	<trip id="28" depart="21" from="-260998164#3" to="-597602753#1"/>
	<trip id="29" depart="23" from="422688973" to="-105681660#20"/>
	<trip id="30" depart="24" from="-260998164#3" to="-597602753#1"/>
	<trip id="31" depart="25" from="422685671#2" to="260998164#0"/>
	<trip id="32" depart="26" from="597602753#0" to="-318908683#1"/>
	<trip id="33" depart="26" from="597602756#0" to="-597602753#1"/>
	<trip id="34" depart="28" from="422685671#2" to="422688976#1"/>
	<trip id="35" depart="28" from="597602756#0" to="15374898#0-AddedOffRampEdge"/>
	<trip id="36" depart="28" from="105681660#12" to="-318908683#1"/>
	<trip id="37" depart="29" from="318908683#0" to="-105681660#20"/>
	<trip id="38" depart="29" from="422685671#2" to="260998164#0"/>
	<trip id="39" depart="30" from="318908683#0" to="-105681660#20"/>
	<trip id="40" depart="30" from="-260998164#3" to="-318908683#1"/>
	<trip id="41" depart="31" from="105681660#12" to="15374898#0-AddedOffRampEdge"/>
	<trip id="42" depart="31" from="105681660#12" to="260998164#0"/>
	<trip id="43" depart="33" from="-260998164#3" to="422688976#1"/>
	<trip id="44" depart="35" from="-260998164#3" to="-105681660#20"/>
	<trip id="45" depart="35" from="597602756#0" to="918280984"/>
	<trip id="46" depart="40" from="105681660#12" to="-597602756#0"/>
	<trip id="47" depart="42" from="422688973" to="260998164#0"/>
	<trip id="48" depart="43" from="-260998164#3" to="422688976#1"/>
	<trip id="49" depart="43" from="597602756#0" to="-597602753#1"/>
	<trip id="50" depart="44" from="105681660#12" to="422688976#1"/>
	<trip id="51" depart="44" from="597602753#0" to="918280984"/>
	<trip id="52" depart="44" from="597602753#0" to="15374898#0-AddedOffRampEdge"/>
	<trip id="53" depart="45" from="422685671#2" to="918280984"/>
	<trip id="54" depart="46" from="105681660#12" to="15374898#0-AddedOffRampEdge"/>
	<trip id="55" depart="49" from="918280985" to="15374898#0-AddedOffRampEdge"/>
	<trip id="56" depart="50" from="597602756#0" to="260998164#0"/>
	<trip id="57" depart="50" from="597602756#0" to="-318908683#1"/>
	<trip id="58" depart="52" from="597602756#0" to="-597602753#1"/>
	<trip id="59" depart="52" from="597602756#0" to="918280984"/>
	<trip id="60" depart="54" from="-260998164#3" to="-105681660#20"/>
	<trip id="61" depart="54" from="-260998164#3" to="-318908683#1"/>
	<trip id="62" depart="56" from="597602753#0" to="-597602756#0"/>
	<trip id="63" depart="56" from="918280985" to="-105681660#20"/>
	<trip id="64" depart="59" from="918280985" to="260998164#0"/>
	<trip id="65" depart="64" from="597602753#0" to="-105681660#20"/>
	<trip id="66" depart="64" from="-260998164#3" to="-597602756#0"/>
	<trip id="67" depart="64" from="422688973" to="-597602753#1"/>
	<trip id="68" depart="65" from="422688973" to="15374898#0-AddedOffRampEdge"/>
	<trip id="69" depart="66" from="422688973" to="260998164#0"/>
	<trip id="70" depart="66" from="318908683#0" to="260998164#0"/>
	<trip id="71" depart="67" from="422688973" to="-105681660#20"/>
	<trip id="72" depart="68" from="422688973" to="-105681660#20"/>
	<trip id="73" depart="68" from="918280985" to="-105681660#20"/>
	<trip id="74" depart="71" from="105681660#12" to="918280984"/>
	<trip id="75" depart="73" from="422685671#2" to="918280984"/>
	<trip id="76" depart="75" from="918280985" to="-318908683#1"/>
	<trip id="77" depart="78" from="318908683#0" to="-597602753#1"/>
	<trip id="78" depart="78" from="422688973" to="-105681660#20"/>
	<trip id="79" depart="79" from="422685671#2" to="918280984"/>
	<trip id="80" depart="79" from="422685671#2" to="260998164#0"/>
	<trip id="81" depart="80" from="-260998164#3" to="918280984"/>
	<trip id="82" depart="80" from="918280985" to="-597602753#1"/>
	<trip id="83" depart="80" from="597602756#0" to="-597602753#1"/>
	<trip id="84" depart="81" from="422688973" to="15374898#0-AddedOffRampEdge"/>
	<trip id="85" depart="82" from="422688973" to="-318908683#1"/>
	<trip id="86" depart="84" from="422685671#2" to="422688976#1"/>
	<trip id="87" depart="84" from="918280985" to="-318908683#1"/>
	<trip id="88" depart="90" from="597602753#0" to="422688976#1"/>
	<trip id="89" depart="90" from="105681660#12" to="15374898#0-AddedOffRampEdge"/>
	<trip id="90" depart="91" from="422688973" to="-597602756#0"/>
	<trip id="91" depart="91" from="918280985" to="260998164#0"/>
	<trip id="92" depart="92" from="422685671#2" to="-597602753#1"/>
	<trip id="93" depart="94" from="-260998164#3" to="-105681660#20"/>
	<trip id="94" depart="96" from="422685671#2" to="-105681660#20"/>
	<trip id="95" depart="96" from="422685671#2" to="-597602756#0"/>
	<trip id="96" depart="96" from="918280985" to="-597602753#1"/>
	<trip id="97" depart="99" from="318908683#0" to="-597602753#1"/>
	<trip id="98" depart="100" from="105681660#12" to="260998164#0"/>
	<trip id="99" depart="101" from="918280985" to="-105681660#20"/>
	<trip id="100" depart="103" from="597602756#0" to="-105681660#20"/>
	<trip id="101" depart="104" from="-260998164#3" to="-105681660#20"/>
	<trip id="102" depart="104" from="-260998164#3" to="-105681660#20"/>
	<trip id="103" depart="105" from="-260998164#3" to="422688976#1"/>
	<trip id="104" depart="105" from="918280985" to="-318908683#1"/>
	<trip id="105" depart="106" from="597602753#0" to="-597602756#0"/>
	<trip id="106" depart="106" from="105681660#12" to="422688976#1"/>
	<trip id="107" depart="107" from="318908683#0" to="-105681660#20"/>
	<trip id="108" depart="108" from="597602756#0" to="-597602753#1"/>
	<trip id="109" depart="109" from="422685671#2" to="-597602753#1"/>
	<trip id="110" depart="109" from="422685671#2" to="260998164#0"/>
	<trip id="111" depart="109" from="597602753#0" to="-597602756#0"/>
	<trip id="112" depart="109" from="-260998164#3" to="-318908683#1"/>
	<trip id="113" depart="111" from="318908683#0" to="-105681660#20"/>
	<trip id="114" depart="111" from="422688973" to="-597602756#0"/>
	<trip id="115" depart="112" from="422685671#2" to="918280984"/>
	<trip id="116" depart="113" from="422685671#2" to="918280984"/>
	<trip id="117" depart="113" from="105681660#12" to="-597602756#0"/>
	<trip id="118" depart="114" from="597602756#0" to="422688976#1"/>
	<trip id="119" depart="114" from="422685671#2" to="-597602756#0"/>
	<trip id="120" depart="115" from="422685671#2" to="422688976#1"/>
	<trip id="121" depart="115" from="422688973" to="15374898#0-AddedOffRampEdge"/>
	<trip id="122" depart="117" from="422688973" to="-597602753#1"/>
	<trip id="123" depart="119" from="597602753#0" to="422688976#1"/>
	<trip id="124" depart="119" from="422688973" to="-105681660#20"/>
	<trip id="125" depart="121" from="105681660#12" to="918280984"/>
	<trip id="126" depart="121" from="318908683#0" to="422688976#1"/>
	<trip id="127" depart="122" from="105681660#12" to="260998164#0"/>
	<trip id="128" depart="122" from="422688973" to="-597602753#1"/>
	<trip id="129" depart="122" from="597602756#0" to="-318908683#1"/>
	<trip id="130" depart="124" from="422688973" to="15374898#0-AddedOffRampEdge"/>
	<trip id="131" depart="126" from="422688973" to="-597602753#1"/>
	<trip id="132" depart="128" from="318908683#0" to="-105681660#20"/>
	<trip id="133" depart="131" from="-260998164#3" to="15374898#0-AddedOffRampEdge"/>
	<trip id="134" depart="132" from="422688973" to="-105681660#20"/>
	<trip id="135" depart="133" from="597602753#0" to="260998164#0"/>
	<trip id="136" depart="136" from="318908683#0" to="-597602753#1"/>
	<trip id="137" depart="137" from="597602756#0" to="422688976#1"/>
	<trip id="138" depart="137" from="-260998164#3" to="918280984"/>
	<trip id="139" depart="138" from="318908683#0" to="260998164#0"/>
	<trip id="140" depart="138" from="105681660#12" to="422688976#1"/>
	<trip id="141" depart="140" from="422688973" to="-597602756#0"/>
	<trip id="142" depart="142" from="597602753#0" to="-105681660#20"/>
	<trip id="143" depart="143" from="918280985" to="-318908683#1"/>
	<trip id="144" depart="145" from="422688973" to="-597602753#1"/>
	<trip id="145" depart="145" from="422688973" to="-597602753#1"/>
	<trip id="146" depart="145" from="-260998164#3" to="-597602753#1"/>
	<trip id="147" depart="145" from="-260998164#3" to="-597602753#1"/>
	<trip id="148" depart="145" from="918280985" to="-105681660#20"/>
	<trip id="149" depart="147" from="318908683#0" to="260998164#0"/>
	<trip id="150" depart="147" from="918280985" to="-318908683#1"/>
	<trip id="151" depart="150" from="-260998164#3" to="422688976#1"/>
	<trip id="152" depart="151" from="422688973" to="-597602756#0"/>
	<trip id="153" depart="151" from="318908683#0" to="-597602756#0"/>
	<trip id="154" depart="152" from="422685671#2" to="422688976#1"/>
	<trip id="155" depart="152" from="-260998164#3" to="918280984"/>
	<trip id="156" depart="153" from="422685671#2" to="918280984"/>
	<trip id="157" depart="157" from="918280985" to="-105681660#20"/>
	<trip id="158" depart="157" from="105681660#12" to="-597602756#0"/>
	<trip id="159" depart="158" from="-260998164#3" to="-597602756#0"/>
	<trip id="160" depart="160" from="422688973" to="-597602756#0"/>
	<trip id="161" depart="160" from="918280985" to="15374898#0-AddedOffRampEdge"/>
	<trip id="162" depart="164" from="105681660#12" to="422688976#1"/>
	<trip id="163" depart="164" from="597602756#0" to="260998164#0"/>
	<trip id="164" depart="164" from="422685671#2" to="918280984"/>
	<trip id="165" depart="167" from="597602756#0" to="-105681660#20"/>
	<trip id="166" depart="168" from="422688973" to="-597602753#1"/>
	<trip id="167" depart="169" from="918280985" to="-318908683#1"/>
	<trip id="168" depart="171" from="-260998164#3" to="422688976#1"/>
	<trip id="169" depart="171" from="422688973" to="-105681660#20"/>
	<trip id="170" depart="175" from="318908683#0" to="422688976#1"/>
	<trip id="171" depart="179" from="918280985" to="15374898#0-AddedOffRampEdge"/>
	<trip id="172" depart="179" from="918280985" to="-597602756#0"/>
	<trip id="173" depart="182" from="422688973" to="-597602756#0"/>
	<trip id="174" depart="184" from="918280985" to="-318908683#1"/>
	<trip id="175" depart="184" from="918280985" to="-597602753#1"/>
	<trip id="176" depart="185" from="422685671#2" to="260998164#0"/>
	<trip id="177" depart="186" from="105681660#12" to="-597602756#0"/>
	<trip id="178" depart="187" from="597602753#0" to="15374898#0-AddedOffRampEdge"/>
	<trip id="179" depart="188" from="318908683#0" to="-597602756#0"/>
	<trip id="180" depart="189" from="918280985" to="15374898#0-AddedOffRampEdge"/>
	<trip id="181" depart="189" from="422688973" to="260998164#0"/>
	<trip id="182" depart="190" from="422688973" to="-105681660#20"/>
	<trip id="183" depart="190" from="105681660#12" to="260998164#0"/>
	<trip id="184" depart="191" from="-260998164#3" to="-597602756#0"/>
	<trip id="185" depart="191" from="105681660#12" to="-597602753#1"/>
	<trip id="186" depart="192" from="-260998164#3" to="422688976#1"/>
	<trip id="187" depart="193" from="422685671#2" to="-597602756#0"/>
	<trip id="188" depart="195" from="597602756#0" to="918280984"/>
	<trip id="189" depart="195" from="597602753#0" to="918280984"/>
	<trip id="190" depart="195" from="105681660#12" to="422688976#1"/>
	<trip id="191" depart="196" from="318908683#0" to="918280984"/>
	<trip id="192" depart="197" from="422685671#2" to="-105681660#20"/>
	<trip id="193" depart="198" from="597602753#0" to="-105681660#20"/>
	<trip id="194" depart="200" from="105681660#12" to="918280984"/>
	<trip id="195" depart="201" from="-260998164#3" to="15374898#0-AddedOffRampEdge"/>
	<trip id="196" depart="203" from="597602753#0" to="918280984"/>
	<trip id="197" depart="204" from="422688973" to="15374898#0-AddedOffRampEdge"/>
	<trip id="198" depart="205" from="597602756#0" to="-105681660#20"/>
	<trip id="199" depart="206" from="597602756#0" to="-318908683#1"/>
	<trip id="200" depart="207" from="597602753#0" to="15374898#0-AddedOffRampEdge"/>
	<trip id="201" depart="207" from="422685671#2" to="918280984"/>
	<trip id="202" depart="207" from="422688973" to="260998164#0"/>
	<trip id="203" depart="209" from="422685671#2" to="260998164#0"/>
	<trip id="204" depart="209" from="-260998164#3" to="-597602753#1"/>
	<trip id="205" depart="209" from="597602753#0" to="-318908683#1"/>
	<trip id="206" depart="210" from="918280985" to="-597602756#0"/>
	<trip id="207" depart="210" from="-260998164#3" to="422688976#1"/>
	<trip id="208" depart="211" from="597602756#0" to="-597602753#1"/>
	<trip id="209" depart="212" from="597602753#0" to="15374898#0-AddedOffRampEdge"/>
	<trip id="210" depart="212" from="-260998164#3" to="422688976#1"/>
	<trip id="211" depart="214" from="918280985" to="260998164#0"/>
	<trip id="212" depart="215" from="597602753#0" to="422688976#1"/>
	<trip id="213" depart="217" from="422685671#2" to="-597602756#0"/>
	<trip id="214" depart="217" from="-260998164#3" to="15374898#0-AddedOffRampEdge"/>
	<trip id="215" depart="217" from="422688973" to="-318908683#1"/>
	<trip id="216" depart="217" from="422688973" to="-318908683#1"/>
	<trip id="217" depart="218" from="597602756#0" to="260998164#0"/>
	<trip id="218" depart="218" from="-260998164#3" to="918280984"/>
	<trip id="219" depart="221" from="105681660#12" to="-318908683#1"/>
	<trip id="220" depart="221" from="-260998164#3" to="-597602753#1"/>
	<trip id="221" depart="222" from="918280985" to="15374898#0-AddedOffRampEdge"/>
	<trip id="222" depart="223" from="318908683#0" to="918280984"/>
	<trip id="223" depart="224" from="422685671#2" to="918280984"/>
	<trip id="224" depart="225" from="422688973" to="-597602756#0"/>
	<trip id="225" depart="225" from="597602753#0" to="15374898#0-AddedOffRampEdge"/>
	<trip id="226" depart="227" from="422688973" to="15374898#0-AddedOffRampEdge"/>
	<trip id="227" depart="229" from="105681660#12" to="422688976#1"/>
	<trip id="228" depart="235" from="918280985" to="15374898#0-AddedOffRampEdge"/>
	<trip id="229" depart="237" from="422685671#2" to="-597602753#1"/>
	<trip id="230" depart="237" from="-260998164#3" to="-597602753#1"/>
	<trip id="231" depart="239" from="318908683#0" to="918280984"/>
	<trip id="232" depart="243" from="-260998164#3" to="15374898#0-AddedOffRampEdge"/>
	<trip id="233" depart="243" from="-260998164#3" to="15374898#0-AddedOffRampEdge"/>
	<trip id="234" depart="243" from="422685671#2" to="422688976#1"/>
	<trip id="235" depart="244" from="422688973" to="-105681660#20"/>
	<trip id="236" depart="244" from="422685671#2" to="422688976#1"/>
	<trip id="237" depart="247" from="597602756#0" to="-597602753#1"/>
	<trip id="238" depart="247" from="597602756#0" to="-597602753#1"/>
	<trip id="239" depart="249" from="597602756#0" to="918280984"/>
	<trip id="240" depart="249" from="918280985" to="15374898#0-AddedOffRampEdge"/>
	<trip id="241" depart="252" from="-260998164#3" to="918280984"/>
	<trip id="242" depart="252" from="422685671#2" to="-105681660#20"/>
	<trip id="243" depart="253" from="105681660#12" to="918280984"/>
	<trip id="244" depart="253" from="597602756#0" to="918280984"/>
	<trip id="245" depart="254" from="-260998164#3" to="-597602756#0"/>
	<trip id="246" depart="254" from="-260998164#3" to="422688976#1"/>
	<trip id="247" depart="255" from="597602753#0" to="-105681660#20"/>
	<trip id="248" depart="255" from="597602756#0" to="918280984"/>
	<trip id="249" depart="255" from="422688973" to="-318908683#1"/>
	<trip id="250" depart="257" from="597602753#0" to="-318908683#1"/>
	<trip id="251" depart="258" from="105681660#12" to="15374898#0-AddedOffRampEdge"/>
	<trip id="252" depart="258" from="918280985" to="-597602753#1"/>
	<trip id="253" depart="258" from="597602756#0" to="260998164#0"/>
	<trip id="254" depart="259" from="105681660#12" to="-597602756#0"/>
	<trip id="255" depart="260" from="-260998164#3" to="15374898#0-AddedOffRampEdge"/>
	<trip id="256" depart="260" from="422688973" to="-597602756#0"/>
	<trip id="257" depart="260" from="422688973" to="15374898#0-AddedOffRampEdge"/>
	<trip id="258" depart="261" from="422685671#2" to="260998164#0"/>
	<trip id="259" depart="261" from="-260998164#3" to="-105681660#20"/>
	<trip id="260" depart="261" from="422685671#2" to="-105681660#20"/>
	<trip id="261" depart="263" from="105681660#12" to="-318908683#1"/>
	<trip id="262" depart="265" from="597602756#0" to="-105681660#20"/>
	<trip id="263" depart="265" from="918280985" to="260998164#0"/>
	<trip id="264" depart="266" from="105681660#12" to="422688976#1"/>
	<trip id="265" depart="269" from="422685671#2" to="422688976#1"/>
	<trip id="266" depart="270" from="597602756#0" to="918280984"/>
	<trip id="267" depart="273" from="105681660#12" to="260998164#0"/>
	<trip id="268" depart="274" from="-260998164#3" to="-105681660#20"/>
	<trip id="269" depart="279" from="422685671#2" to="918280984"/>
	<trip id="270" depart="280" from="422685671#2" to="260998164#0"/>
	<trip id="271" depart="280" from="105681660#12" to="-318908683#1"/>
	<trip id="272" depart="280" from="-260998164#3" to="918280984"/>
	<trip id="273" depart="282" from="597602756#0" to="-318908683#1"/>
	<trip id="274" depart="283" from="597602756#0" to="918280984"/>
	<trip id="275" depart="283" from="105681660#12" to="918280984"/>
	<trip id="276" depart="283" from="597602756#0" to="-105681660#20"/>
	<trip id="277" depart="287" from="918280985" to="-597602756#0"/>
	<trip id="278" depart="291" from="597602753#0" to="260998164#0"/>
	<trip id="279" depart="292" from="318908683#0" to="-105681660#20"/>
	<trip id="280" depart="293" from="422685671#2" to="260998164#0"/>
	<trip id="281" depart="294" from="318908683#0" to="260998164#0"/>
	<trip id="282" depart="296" from="105681660#12" to="260998164#0"/>
	<trip id="283" depart="296" from="422688973" to="-105681660#20"/>
	<trip id="284" depart="297" from="318908683#0" to="918280984"/>
	<trip id="285" depart="300" from="597602753#0" to="-318908683#1"/>
	<trip id="286" depart="300" from="597602756#0" to="422688976#1"/>
	<trip id="287" depart="301" from="422685671#2" to="-597602753#1"/>
	<trip id="288" depart="302" from="597602753#0" to="-105681660#20"/>
	<trip id="289" depart="302" from="597602756#0" to="422688976#1"/>
	<trip id="290" depart="302" from="597602756#0" to="-597602753#1"/>
	<trip id="291" depart="303" from="422688973" to="260998164#0"/>
	<trip id="292" depart="303" from="422685671#2" to="-597602753#1"/>
	<trip id="293" depart="308" from="318908683#0" to="422688976#1"/>
	<trip id="294" depart="309" from="597602756#0" to="918280984"/>
	<trip id="295" depart="311" from="-260998164#3" to="918280984"/>
	<trip id="296" depart="312" from="318908683#0" to="918280984"/>
	<trip id="297" depart="313" from="597602756#0" to="918280984"/>
	<trip id="298" depart="313" from="105681660#12" to="-318908683#1"/>
	<trip id="299" depart="316" from="422685671#2" to="422688976#1"/>
	<trip id="300" depart="317" from="597602753#0" to="-318908683#1"/>
	<trip id="301" depart="319" from="918280985" to="-597602756#0"/>
	<trip id="302" depart="321" from="597602753#0" to="918280984"/>
	<trip id="303" depart="321" from="422685671#2" to="918280984"/>
	<trip id="304" depart="325" from="422685671#2" to="-597602753#1"/>
	<trip id="305" depart="326" from="-260998164#3" to="-597602753#1"/>
	<trip id="306" depart="326" from="597602756#0" to="918280984"/>
	<trip id="307" depart="327" from="597602756#0" to="15374898#0-AddedOffRampEdge"/>
	<trip id="308" depart="327" from="-260998164#3" to="-105681660#20"/>
	<trip id="309" depart="330" from="597602756#0" to="918280984"/>
	<trip id="310" depart="331" from="422688973" to="-318908683#1"/>
	<trip id="311" depart="333" from="422685671#2" to="918280984"/>
	<trip id="312" depart="335" from="597602756#0" to="15374898#0-AddedOffRampEdge"/>
	<trip id="313" depart="336" from="918280985" to="-597602756#0"/>
	<trip id="314" depart="336" from="918280985" to="260998164#0"/>
	<trip id="315" depart="336" from="918280985" to="260998164#0"/>
	<trip id="316" depart="337" from="318908683#0" to="260998164#0"/>
	<trip id="317" depart="337" from="-260998164#3" to="918280984"/>
	<trip id="318" depart="338" from="318908683#0" to="-597602753#1"/>
	<trip id="319" depart="341" from="597602756#0" to="-105681660#20"/>
	<trip id="320" depart="341" from="597602753#0" to="422688976#1"/>
	<trip id="321" depart="342" from="597602753#0" to="422688976#1"/>
	<trip id="322" depart="344" from="318908683#0" to="-597602756#0"/>
	<trip id="323" depart="345" from="-260998164#3" to="15374898#0-AddedOffRampEdge"/>
	<trip id="324" depart="345" from="105681660#12" to="422688976#1"/>
	<trip id="325" depart="345" from="318908683#0" to="-597602753#1"/>
	<trip id="326" depart="346" from="422688973" to="-318908683#1"/>
	<trip id="327" depart="347" from="597602756#0" to="-318908683#1"/>
	<trip id="328" depart="348" from="422688973" to="-597602753#1"/>
	<trip id="329" depart="349" from="422685671#2" to="-105681660#20"/>
	<trip id="330" depart="350" from="105681660#12" to="260998164#0"/>
	<trip id="331" depart="350" from="318908683#0" to="-105681660#20"/>
	<trip id="332" depart="351" from="597602756#0" to="-318908683#1"/>
	<trip id="333" depart="351" from="318908683#0" to="-597602753#1"/>
	<trip id="334" depart="351" from="105681660#12" to="422688976#1"/>
	<trip id="335" depart="351" from="105681660#12" to="918280984"/>
	<trip id="336" depart="351" from="918280985" to="-318908683#1"/>
	<trip id="337" depart="352" from="422685671#2" to="422688976#1"/>
	<trip id="338" depart="353" from="597602753#0" to="15374898#0-AddedOffRampEdge"/>
	<trip id="339" depart="354" from="422685671#2" to="260998164#0"/>
	<trip id="340" depart="355" from="597602756#0" to="-318908683#1"/>
	<trip id="341" depart="361" from="-260998164#3" to="-318908683#1"/>
	<trip id="342" depart="362" from="422688973" to="-105681660#20"/>
	<trip id="343" depart="365" from="422688973" to="-597602756#0"/>
	<trip id="344" depart="365" from="-260998164#3" to="918280984"/>
	<trip id="345" depart="366" from="918280985" to="-597602756#0"/>
	<trip id="346" depart="368" from="422685671#2" to="422688976#1"/>
	<trip id="347" depart="369" from="597602756#0" to="260998164#0"/>
	<trip id="348" depart="369" from="422688973" to="-597602753#1"/>
	<trip id="349" depart="371" from="918280985" to="260998164#0"/>
	<trip id="350" depart="373" from="918280985" to="-318908683#1"/>
	<trip id="351" depart="375" from="-260998164#3" to="-597602753#1"/>
	<trip id="352" depart="375" from="422685671#2" to="260998164#0"/>
	<trip id="353" depart="375" from="422688973" to="-318908683#1"/>
	<trip id="354" depart="375" from="318908683#0" to="-105681660#20"/>
	<trip id="355" depart="377" from="318908683#0" to="422688976#1"/>
	<trip id="356" depart="380" from="597602753#0" to="422688976#1"/>
	<trip id="357" depart="380" from="-260998164#3" to="-597602753#1"/>
	<trip id="358" depart="380" from="918280985" to="-105681660#20"/>
	<trip id="359" depart="382" from="422685671#2" to="918280984"/>
	<trip id="360" depart="383" from="-260998164#3" to="422688976#1"/>
	<trip id="361" depart="384" from="318908683#0" to="-597602753#1"/>
	<trip id="362" depart="384" from="318908683#0" to="-597602756#0"/>
	<trip id="363" depart="384" from="-260998164#3" to="918280984"/>
	<trip id="364" depart="385" from="597602756#0" to="-318908683#1"/>
	<trip id="365" depart="385" from="918280985" to="-318908683#1"/>
	<trip id="366" depart="385" from="918280985" to="15374898#0-AddedOffRampEdge"/>
	<trip id="367" depart="387" from="-260998164#3" to="15374898#0-AddedOffRampEdge"/>
	<trip id="368" depart="388" from="422685671#2" to="260998164#0"/>
	<trip id="369" depart="389" from="-260998164#3" to="-318908683#1"/>
	<trip id="370" depart="390" from="422685671#2" to="-597602753#1"/>
	<trip id="371" depart="390" from="918280985" to="15374898#0-AddedOffRampEdge"/>
	<trip id="372" depart="390" from="105681660#12" to="15374898#0-AddedOffRampEdge"/>
	<trip id="373" depart="391" from="318908683#0" to="-105681660#20"/>
	<trip id="374" depart="391" from="-260998164#3" to="-105681660#20"/>
	<trip id="375" depart="395" from="918280985" to="-597602753#1"/>
	<trip id="376" depart="396" from="597602756#0" to="15374898#0-AddedOffRampEdge"/>
	<trip id="377" depart="396" from="597602753#0" to="-105681660#20"/>
	<trip id="378" depart="397" from="597602753#0" to="260998164#0"/>
	<trip id="379" depart="397" from="318908683#0" to="422688976#1"/>
	<trip id="380" depart="397" from="422685671#2" to="-597602756#0"/>
	<trip id="381" depart="397" from="422688973" to="-105681660#20"/>
	<trip id="382" depart="398" from="318908683#0" to="260998164#0"/>
	<trip id="383" depart="398" from="918280985" to="-318908683#1"/>
	<trip id="384" depart="398" from="918280985" to="260998164#0"/>
	<trip id="385" depart="401" from="318908683#0" to="422688976#1"/>
	<trip id="386" depart="401" from="-260998164#3" to="-597602753#1"/>
	<trip id="387" depart="402" from="105681660#12" to="422688976#1"/>
	<trip id="388" depart="402" from="918280985" to="-318908683#1"/>
	<trip id="389" depart="402" from="597602756#0" to="422688976#1"/>
	<trip id="390" depart="403" from="105681660#12" to="-597602753#1"/>
	<trip id="391" depart="404" from="597602756#0" to="-105681660#20"/>
	<trip id="392" depart="405" from="318908683#0" to="-105681660#20"/>
	<trip id="393" depart="405" from="422688973" to="260998164#0"/>
	<trip id="394" depart="405" from="-260998164#3" to="-105681660#20"/>
	<trip id="395" depart="406" from="422688973" to="-597602753#1"/>
	<trip id="396" depart="406" from="422688973" to="260998164#0"/>
	<trip id="397" depart="411" from="422685671#2" to="422688976#1"/>
	<trip id="398" depart="413" from="422688973" to="-318908683#1"/>
	<trip id="399" depart="413" from="597602756#0" to="-105681660#20"/>
	<trip id="400" depart="414" from="918280985" to="15374898#0-AddedOffRampEdge"/>
	<trip id="401" depart="418" from="422685671#2" to="-597602756#0"/>
	<trip id="402" depart="419" from="597602753#0" to="-318908683#1"/>
	<trip id="403" depart="419" from="918280985" to="-597602756#0"/>
	<trip id="404" depart="419" from="422685671#2" to="918280984"/>
	<trip id="405" depart="419" from="105681660#12" to="260998164#0"/>
	<trip id="406" depart="420" from="597602756#0" to="422688976#1"/>
	<trip id="407" depart="421" from="597602756#0" to="-318908683#1"/>
	<trip id="408" depart="424" from="918280985" to="15374898#0-AddedOffRampEdge"/>
	<trip id="409" depart="424" from="918280985" to="-597602753#1"/>
	<trip id="410" depart="425" from="918280985" to="-597602753#1"/>
	<trip id="411" depart="427" from="422685671#2" to="-597602753#1"/>
	<trip id="412" depart="427" from="-260998164#3" to="918280984"/>
	<trip id="413" depart="429" from="597602753#0" to="-318908683#1"/>
	<trip id="414" depart="429" from="-260998164#3" to="918280984"/>
	<trip id="415" depart="430" from="597602756#0" to="260998164#0"/>
	<trip id="416" depart="431" from="105681660#12" to="-597602756#0"/>
	<trip id="417" depart="432" from="422688973" to="-597602756#0"/>
	<trip id="418" depart="433" from="318908683#0" to="260998164#0"/>
	<trip id="419" depart="435" from="-260998164#3" to="-597602753#1"/>
	<trip id="420" depart="436" from="422685671#2" to="-105681660#20"/>
	<trip id="421" depart="436" from="-260998164#3" to="-597602756#0"/>
	<trip id="422" depart="438" from="422685671#2" to="-597602753#1"/>
	<trip id="423" depart="439" from="318908683#0" to="918280984"/>
	<trip id="424" depart="440" from="318908683#0" to="-597602756#0"/>
	<trip id="425" depart="442" from="918280985" to="-105681660#20"/>
	<trip id="426" depart="443" from="597602756#0" to="15374898#0-AddedOffRampEdge"/>
	<trip id="427" depart="443" from="-260998164#3" to="-318908683#1"/>
	<trip id="428" depart="443" from="422685671#2" to="-597602756#0"/>
	<trip id="429" depart="443" from="318908683#0" to="-105681660#20"/>
	<trip id="430" depart="445" from="318908683#0" to="-105681660#20"/>
	<trip id="431" depart="446" from="422685671#2" to="-105681660#20"/>
	<trip id="432" depart="446" from="-260998164#3" to="-597602756#0"/>
	<trip id="433" depart="446" from="105681660#12" to="15374898#0-AddedOffRampEdge"/>
	<trip id="434" depart="447" from="105681660#12" to="260998164#0"/>
	<trip id="435" depart="448" from="597602756#0" to="-105681660#20"/>
	<trip id="436" depart="449" from="597602756#0" to="918280984"/>