<?xml version="1.0" ?>
<routes xmlns:xsi="&quot;http://www.w3.org/2001/XMLSchema-instance&quot;" xsi:noNamespaceSchemaLocation="&quot;http://sumo.dlr.de/xsd/routes_file.xsd&quot;">
	<trip id="2" depart="1" from="E0" to="E3"/>
	<trip id="3" depart="1" from="E0" to="E3"/>
	<trip id="4" depart="2" from="E0" to="E3"/>
	<trip id="5" depart="3" from="E0" to="E3"/>
	<trip id="6" depart="4" from="E0" to="E3"/>
	<trip id="7" depart="5" from="E0" to="E3"/>
	<trip id="8" depart="5" from="E0" to="E3"/>
	<trip id="9" depart="6" from="E0" to="E3"/>
	<trip id="10" depart="6" from="E0" to="E3"/>
	<trip id="11" depart="7" from="E0" to="E3"/>
	<trip id="12" depart="8" from="E0" to="E3"/>
	<trip id="13" depart="9" from="E0" to="E3"/>
	<trip id="14" depart="11" from="E0" to="E3"/>
	<trip id="15" depart="12" from="E0" to="E3"/>
	<trip id="16" depart="12" from="E0" to="E3"/>
	<trip id="17" depart="14" from="E0" to="E3"/>
	<trip id="18" depart="14" from="E0" to="E3"/>
	<trip id="19" depart="14" from="E0" to="E3"/>
	<trip id="20" depart="15" from="E0" to="E3"/>
	<trip id="21" depart="17" from="E0" to="E3"/>
	<trip id="22" depart="18" from="E0" to="E3"/>
	<trip id="23" depart="18" from="E0" to="E3"/>
	<trip id="24" depart="19" from="E0" to="E3"/>
	<trip id="25" depart="19" from="E0" to="E3"/>
	<trip id="26" depart="19" from="E0" to="E3"/>
	<trip id="27" depart="20" from="E0" to="E3"/>
	<trip id="28" depart="20" from="E0" to="E3"/>
	<trip id="29" depart="23" from="E0" to="E3"/>
	<trip id="30" depart="23" from="E0" to="E3"/>
	<trip id="31" depart="29" from="E0" to="E3"/>
	<trip id="32" depart="29" from="E0" to="E3"/>
	<trip id="33" depart="31" from="E0" to="E3"/>
	<trip id="34" depart="33" from="E0" to="E3"/>
	<trip id="35" depart="33" from="E0" to="E3"/>
	<trip id="36" depart="37" from="E0" to="E3"/>
	<trip id="37" depart="40" from="E0" to="E3"/>
	<trip id="38" depart="41" from="E0" to="E3"/>
	<trip id="39" depart="41" from="E0" to="E3"/>
	<trip id="40" depart="42" from="E0" to="E3"/>
	<trip id="41" depart="45" from="E0" to="E3"/>
	<trip id="42" depart="46" from="E0" to="E3"/>
	<trip id="43" depart="46" from="E0" to="E3"/>
	<trip id="44" depart="46" from="E0" to="E3"/>
	<trip id="45" depart="47" from="E0" to="E3"/>
	<trip id="46" depart="48" from="E0" to="E3"/>
	<trip id="47" depart="49" from="E0" to="E3"/>
	<trip id="48" depart="49" from="E0" to="E3"/>
	<trip id="49" depart="52" from="E0" to="E3"/>
	<trip id="50" depart="52" from="E0" to="E3"/>
	<trip id="51" depart="54" from="E0" to="E3"/>
	<trip id="52" depart="55" from="E0" to="E3"/>
	<trip id="53" depart="55" from="E0" to="E3"/>
	<trip id="54" depart="56" from="E0" to="E3"/>
	<trip id="55" depart="57" from="E0" to="E3"/>
	<trip id="56" depart="57" from="E0" to="E3"/>
	<trip id="57" depart="58" from="E0" to="E3"/>
	<trip id="58" depart="60" from="E0" to="E3"/>
	<trip id="59" depart="60" from="E0" to="E3"/>
	<trip id="60" depart="63" from="E0" to="E3"/>
	<trip id="61" depart="64" from="E0" to="E3"/>
	<trip id="62" depart="64" from="E0" to="E3"/>
	<trip id="63" depart="66" from="E0" to="E3"/>
	<trip id="64" depart="67" from="E0" to="E3"/>
	<trip id="65" depart="68" from="E0" to="E3"/>
	<trip id="66" depart="70" from="E0" to="E3"/>
	<trip id="67" depart="71" from="E0" to="E3"/>
	<trip id="68" depart="74" from="E0" to="E3"/>
	<trip id="69" depart="76" from="E0" to="E3"/>
	<trip id="70" depart="76" from="E0" to="E3"/>
	<trip id="71" depart="77" from="E0" to="E3"/>
	<trip id="72" depart="77" from="E0" to="E3"/>
	<trip id="73" depart="79" from="E0" to="E3"/>
	<trip id="74" depart="79" from="E0" to="E3"/>
	<trip id="75" depart="82" from="E0" to="E3"/>
	<trip id="76" depart="82" from="E0" to="E3"/>
	<trip id="77" depart="83" from="E0" to="E3"/>
	<trip id="78" depart="83" from="E0" to="E3"/>
	<trip id="79" depart="86" from="E0" to="E3"/>
	<trip id="80" depart="88" from="E0" to="E3"/>
	<trip id="81" depart="90" from="E0" to="E3"/>
	<trip id="82" depart="91" from="E0" to="E3"/>
	<trip id="83" depart="92" from="E0" to="E3"/>
	<trip id="84" depart="94" from="E0" to="E3"/>
	<trip id="85" depart="95" from="E0" to="E3"/>
	<trip id="86" depart="95" from="E0" to="E3"/>
	<trip id="87" depart="96" from="E0" to="E3"/>
	<trip id="88" depart="99" from="E0" to="E3"/>
	<trip id="89" depart="99" from="E0" to="E3"/>
	<trip id="90" depart="100" from="E0" to="E3"/>
	<trip id="91" depart="100" from="E0" to="E3"/>
	<trip id="92" depart="101" from="E0" to="E3"/>
	<trip id="93" depart="101" from="E0" to="E3"/>
	<trip id="94" depart="101" from="E0" to="E3"/>
	<trip id="95" depart="105" from="E0" to="E3"/>
	<trip id="96" depart="110" from="E0" to="E3"/>
	<trip id="97" depart="111" from="E0" to="E3"/>
	<trip id="98" depart="111" from="E0" to="E3"/>
	<trip id="99" depart="112" from="E0" to="E3"/>
	<trip id="100" depart="118" from="E0" to="E3"/>
	<trip id="101" depart="118" from="E0" to="E3"/>
	<trip id="102" depart="119" from="E0" to="E3"/>
	<trip id="103" depart="121" from="E0" to="E3"/>
	<trip id="104" depart="121" from="E0" to="E3"/>
	<trip id="105" depart="121" from="E0" to="E3"/>
	<trip id="106" depart="122" from="E0" to="E3"/>
	<trip id="107" depart="123" from="E0" to="E3"/>
	<trip id="108" depart="124" from="E0" to="E3"/>
	<trip id="109" depart="124" from="E0" to="E3"/>
	<trip id="110" depart="124" from="E0" to="E3"/>
	<trip id="111" depart="125" from="E0" to="E3"/>
	<trip id="112" depart="128" from="E0" to="E3"/>
	<trip id="113" depart="128" from="E0" to="E3"/>
	<trip id="114" depart="128" from="E0" to="E3"/>
	<trip id="115" depart="129" from="E0" to="E3"/>
	<trip id="116" depart="129" from="E0" to="E3"/>
	<trip id="117" depart="130" from="E0" to="E3"/>
	<trip id="118" depart="130" from="E0" to="E3"/>
	<trip id="119" depart="131" from="E0" to="E3"/>
	<trip id="120" depart="132" from="E0" to="E3"/>
	<trip id="121" depart="132" from="E0" to="E3"/>
	<trip id="122" depart="133" from="E0" to="E3"/>
	<trip id="123" depart="133" from="E0" to="E3"/>
	<trip id="124" depart="133" from="E0" to="E3"/>
	<trip id="125" depart="134" from="E0" to="E3"/>
	<trip id="126" depart="134" from="E0" to="E3"/>
	<trip id="127" depart="134" from="E0" to="E3"/>
	<trip id="128" depart="134" from="E0" to="E3"/>
	<trip id="129" depart="135" from="E0" to="E3"/>
	<trip id="130" depart="135" from="E0" to="E3"/>
	<trip id="131" depart="136" from="E0" to="E3"/>
	<trip id="132" depart="137" from="E0" to="E3"/>
	<trip id="133" depart="137" from="E0" to="E3"/>
	<trip id="134" depart="138" from="E0" to="E3"/>
	<trip id="135" depart="141" from="E0" to="E3"/>
	<trip id="136" depart="142" from="E0" to="E3"/>
	<trip id="137" depart="144" from="E0" to="E3"/>
	<trip id="138" depart="144" from="E0" to="E3"/>
	<trip id="139" depart="144" from="E0" to="E3"/>
	<trip id="140" depart="145" from="E0" to="E3"/>
	<trip id="141" depart="145" from="E0" to="E3"/>
	<trip id="142" depart="145" from="E0" to="E3"/>
	<trip id="143" depart="149" from="E0" to="E3"/>
	<trip id="144" depart="150" from="E0" to="E3"/>
	<trip id="145" depart="150" from="E0" to="E3"/>
	<trip id="146" depart="153" from="E0" to="E3"/>
	<trip id="147" depart="154" from="E0" to="E3"/>
	<trip id="148" depart="154" from="E0" to="E3"/>
	<trip id="149" depart="155" from="E0" to="E3"/>
	<trip id="150" depart="156" from="E0" to="E3"/>
	<trip id="151" depart="157" from="E0" to="E3"/>
	<trip id="152" depart="157" from="E0" to="E3"/>
	<trip id="153" depart="158" from="E0" to="E3"/>
	<trip id="154" depart="158" from="E0" to="E3"/>
	<trip id="155" depart="159" from="E0" to="E3"/>
	<trip id="156" depart="159" from="E0" to="E3"/>
	<trip id="157" depart="159" from="E0" to="E3"/>
	<trip id="158" depart="161" from="E0" to="E3"/>
	<trip id="159" depart="165" from="E0" to="E3"/>
	<trip id="160" depart="166" from="E0" to="E3"/>
	<trip id="161" depart="168" from="E0" to="E3"/>
	<trip id="162" depart="168" from="E0" to="E3"/>
	<trip id="163" depart="168" from="E0" to="E3"/>
	<trip id="164" depart="168" from="E0" to="E3"/>
	<trip id="165" depart="169" from="E0" to="E3"/>
	<trip id="166" depart="169" from="E0" to="E3"/>
	<trip id="167" depart="170" from="E0" to="E3"/>
	<trip id="168" depart="171" from="E0" to="E3"/>
	<trip id="169" depart="172" from="E0" to="E3"/>
	<trip id="170" depart="173" from="E0" to="E3"/>
	<trip id="171" depart="173" from="E0" to="E3"/>
	<trip id="172" depart="173" from="E0" to="E3"/>
	<trip id="173" depart="174" from="E0" to="E3"/>
	<trip id="174" depart="178" from="E0" to="E3"/>
	<trip id="175" depart="180" from="E0" to="E3"/>
	<trip id="176" depart="181" from="E0" to="E3"/>
	<trip id="177" depart="182" from="E0" to="E3"/>
	<trip id="178" depart="183" from="E0" to="E3"/>
	<trip id="179" depart="183" from="E0" to="E3"/>
	<trip id="180" depart="184" from="E0" to="E3"/>
	<trip id="181" depart="185" from="E0" to="E3"/>
	<trip id="182" depart="187" from="E0" to="E3"/>
	<trip id="183" depart="189" from="E0" to="E3"/>
	<trip id="184" depart="189" from="E0" to="E3"/>
	<trip id="185" depart="189" from="E0" to="E3"/>
	<trip id="186" depart="191" from="E0" to="E3"/>
	<trip id="187" depart="192" from="E0" to="E3"/>
	<trip id="188" depart="193" from="E0" to="E3"/>
	<trip id="189" depart="193" from="E0" to="E3"/>
	<trip id="190" depart="194" from="E0" to="E3"/>
	<trip id="191" depart="194" from="E0" to="E3"/>
	<trip id="192" depart="194" from="E0" to="E3"/>
	<trip id="193" depart="195" from="E0" to="E3"/>
	<trip id="194" depart="196" from="E0" to="E3"/>
	<trip id="195" depart="197" from="E0" to="E3"/>
	<trip id="196" depart="197" from="E0" to="E3"/>
	<trip id="197" depart="198" from="E0" to="E3"/>
	<trip id="198" depart="198" from="E0" to="E3"/>
	<trip id="199" depart="199" from="E0" to="E3"/>
	<trip id="200" depart="200" from="E0" to="E3"/>
	<trip id="201" depart="200" from="E0" to="E3"/>
	<trip id="202" depart="201" from="E0" to="E3"/>
	<trip id="203" depart="204" from="E0" to="E3"/>
	<trip id="204" depart="205" from="E0" to="E3"/>
	<trip id="205" depart="206" from="E0" to="E3"/>
	<trip id="206" depart="206" from="E0" to="E3"/>
	<trip id="207" depart="206" from="E0" to="E3"/>
	<trip id="208" depart="208" from="E0" to="E3"/>
	<trip id="209" depart="210" from="E0" to="E3"/>
	<trip id="210" depart="211" from="E0" to="E3"/>
	<trip id="211" depart="211" from="E0" to="E3"/>
	<trip id="212" depart="211" from="E0" to="E3"/>
	<trip id="213" depart="215" from="E0" to="E3"/>
	<trip id="214" depart="217" from="E0" to="E3"/>
	<trip id="215" depart="217" from="E0" to="E3"/>
	<trip id="216" depart="219" from="E0" to="E3"/>
	<trip id="217" depart="220" from="E0" to="E3"/>
	<trip id="218" depart="220" from="E0" to="E3"/>
	<trip id="219" depart="220" from="E0" to="E3"/>
	<trip id="220" depart="221" from="E0" to="E3"/>
	<trip id="221" depart="221" from="E0" to="E3"/>
	<trip id="222" depart="224" from="E0" to="E3"/>
	<trip id="223" depart="225" from="E0" to="E3"/>
	<trip id="224" depart="227" from="E0" to="E3"/>
	<trip id="225" depart="227" from="E0" to="E3"/>
	<trip id="226" depart="228" from="E0" to="E3"/>
	<trip id="227" depart="229" from="E0" to="E3"/>
	<trip id="228" depart="229" from="E0" to="E3"/>
	<trip id="229" depart="231" from="E0" to="E3"/>
	<trip id="230" depart="232" from="E0" to="E3"/>
	<trip id="231" depart="232" from="E0" to="E3"/>
	<trip id="232" depart="235" from="E0" to="E3"/>
	<trip id="233" depart="237" from="E0" to="E3"/>
	<trip id="234" depart="237" from="E0" to="E3"/>
	<trip id="235" depart="241" from="E0" to="E3"/>
	<trip id="236" depart="242" from="E0" to="E3"/>
	<trip id="237" depart="244" from="E0" to="E3"/>
	<trip id="238" depart="245" from="E0" to="E3"/>
	<trip id="239" depart="248" from="E0" to="E3"/>
	<trip id="240" depart="249" from="E0" to="E3"/>
	<trip id="241" depart="249" from="E0" to="E3"/>
	<trip id="242" depart="249" from="E0" to="E3"/>
	<trip id="243" depart="249" from="E0" to="E3"/>
	<trip id="244" depart="250" from="E0" to="E3"/>
	<trip id="245" depart="253" from="E0" to="E3"/>
	<trip id="246" depart="254" from="E0" to="E3"/>
	<trip id="247" depart="254" from="E0" to="E3"/>
	<trip id="248" depart="254" from="E0" to="E3"/>
	<trip id="249" depart="254" from="E0" to="E3"/>
	<trip id="250" depart="254" from="E0" to="E3"/>
	<trip id="251" depart="257" from="E0" to="E3"/>
	<trip id="252" depart="257" from="E0" to="E3"/>
	<trip id="253" depart="258" from="E0" to="E3"/>
	<trip id="254" depart="260" from="E0" to="E3"/>
	<trip id="255" depart="262" from="E0" to="E3"/>
	<trip id="256" depart="263" from="E0" to="E3"/>
	<trip id="257" depart="264" from="E0" to="E3"/>
	<trip id="258" depart="265" from="E0" to="E3"/>
	<trip id="259" depart="265" from="E0" to="E3"/>
	<trip id="260" depart="266" from="E0" to="E3"/>
	<trip id="261" depart="267" from="E0" to="E3"/>
	<trip id="262" depart="267" from="E0" to="E3"/>
	<trip id="263" depart="268" from="E0" to="E3"/>
	<trip id="264" depart="270" from="E0" to="E3"/>
	<trip id="265" depart="271" from="E0" to="E3"/>
	<trip id="266" depart="273" from="E0" to="E3"/>
	<trip id="267" depart="275" from="E0" to="E3"/>
	<trip id="268" depart="277" from="E0" to="E3"/>
	<trip id="269" depart="277" from="E0" to="E3"/>
	<trip id="270" depart="277" from="E0" to="E3"/>
	<trip id="271" depart="281" from="E0" to="E3"/>
	<trip id="272" depart="283" from="E0" to="E3"/>
	<trip id="273" depart="284" from="E0" to="E3"/>
	<trip id="274" depart="288" from="E0" to="E3"/>
	<trip id="275" depart="288" from="E0" to="E3"/>
	<trip id="276" depart="289" from="E0" to="E3"/>
	<trip id="277" depart="290" from="E0" to="E3"/>
	<trip id="278" depart="290" from="E0" to="E3"/>
	<trip id="279" depart="291" from="E0" to="E3"/>
	<trip id="280" depart="292" from="E0" to="E3"/>
	<trip id="281" depart="292" from="E0" to="E3"/>
	<trip id="282" depart="292" from="E0" to="E3"/>
	<trip id="283" depart="293" from="E0" to="E3"/>
	<trip id="284" depart="295" from="E0" to="E3"/>
	<trip id="285" depart="295" from="E0" to="E3"/>
	<trip id="286" depart="295" from="E0" to="E3"/>
	<trip id="287" depart="295" from="E0" to="E3"/>
	<trip id="288" depart="296" from="E0" to="E3"/>
	<trip id="289" depart="296" from="E0" to="E3"/>
	<trip id="290" depart="297" from="E0" to="E3"/>
	<trip id="291" depart="297" from="E0" to="E3"/>
	<trip id="292" depart="298" from="E0" to="E3"/>
	<trip id="293" depart="300" from="E0" to="E3"/>
	<trip id="294" depart="300" from="E0" to="E3"/>
	<trip id="295" depart="301" from="E0" to="E3"/>
	<trip id="296" depart="301" from="E0" to="E3"/>
	<trip id="297" depart="301" from="E0" to="E3"/>
	<trip id="298" depart="302" from="E0" to="E3"/>
	<trip id="299" depart="303" from="E0" to="E3"/>
	<trip id="300" depart="303" from="E0" to="E3"/>
	<trip id="301" depart="304" from="E0" to="E3"/>
	<trip id="302" depart="305" from="E0" to="E3"/>
	<trip id="303" depart="306" from="E0" to="E3"/>
	<trip id="304" depart="309" from="E0" to="E3"/>
	<trip id="305" depart="310" from="E0" to="E3"/>
	<trip id="306" depart="310" from="E0" to="E3"/>
	<trip id="307" depart="310" from="E0" to="E3"/>
	<trip id="308" depart="311" from="E0" to="E3"/>
	<trip id="309" depart="311" from="E0" to="E3"/>
	<trip id="310" depart="311" from="E0" to="E3"/>
	<trip id="311" depart="313" from="E0" to="E3"/>
	<trip id="312" depart="313" from="E0" to="E3"/>
	<trip id="313" depart="315" from="E0" to="E3"/>
	<trip id="314" depart="316" from="E0" to="E3"/>
	<trip id="315" depart="316" from="E0" to="E3"/>
	<trip id="316" depart="317" from="E0" to="E3"/>
	<trip id="317" depart="317" from="E0" to="E3"/>
	<trip id="318" depart="318" from="E0" to="E3"/>
	<trip id="319" depart="320" from="E0" to="E3"/>
	<trip id="320" depart="320" from="E0" to="E3"/>
	<trip id="321" depart="324" from="E0" to="E3"/>
	<trip id="322" depart="324" from="E0" to="E3"/>
	<trip id="323" depart="324" from="E0" to="E3"/>
	<trip id="324" depart="325" from="E0" to="E3"/>
	<trip id="325" depart="327" from="E0" to="E3"/>
	<trip id="326" depart="327" from="E0" to="E3"/>
	<trip id="327" depart="329" from="E0" to="E3"/>
	<trip id="328" depart="331" from="E0" to="E3"/>
	<trip id="329" depart="332" from="E0" to="E3"/>
	<trip id="330" depart="332" from="E0" to="E3"/>
	<trip id="331" depart="334" from="E0" to="E3"/>
	<trip id="332" depart="337" from="E0" to="E3"/>
	<trip id="333" depart="337" from="E0" to="E3"/>
	<trip id="334" depart="341" from="E0" to="E3"/>
	<trip id="335" depart="343" from="E0" to="E3"/>
	<trip id="336" depart="344" from="E0" to="E3"/>
	<trip id="337" depart="347" from="E0" to="E3"/>
	<trip id="338" depart="347" from="E0" to="E3"/>
	<trip id="339" depart="348" from="E0" to="E3"/>
	<trip id="340" depart="348" from="E0" to="E3"/>
	<trip id="341" depart="350" from="E0" to="E3"/>
	<trip id="342" depart="352" from="E0" to="E3"/>
	<trip id="343" depart="354" from="E0" to="E3"/>
	<trip id="344" depart="355" from="E0" to="E3"/>
	<trip id="345" depart="358" from="E0" to="E3"/>
	<trip id="346" depart="358" from="E0" to="E3"/>
	<trip id="347" depart="359" from="E0" to="E3"/>
	<trip id="348" depart="359" from="E0" to="E3"/>
	<trip id="349" depart="359" from="E0" to="E3"/>
	<trip id="350" depart="359" from="E0" to="E3"/>
	<trip id="351" depart="359" from="E0" to="E3"/>
	<trip id="352" depart="359" from="E0" to="E3"/>
	<trip id="353" depart="360" from="E0" to="E3"/>
	<trip id="354" depart="360" from="E0" to="E3"/>
	<trip id="355" depart="364" from="E0" to="E3"/>
	<trip id="356" depart="365" from="E0" to="E3"/>
	<trip id="357" depart="365" from="E0" to="E3"/>
	<trip id="358" depart="365" from="E0" to="E3"/>
	<trip id="359" depart="366" from="E0" to="E3"/>
	<trip id="360" depart="368" from="E0" to="E3"/>
	<trip id="361" depart="368" from="E0" to="E3"/>
	<trip id="362" depart="370" from="E0" to="E3"/>
	<trip id="363" depart="370" from="E0" to="E3"/>
	<trip id="364" depart="371" from="E0" to="E3"/>
	<trip id="365" depart="372" from="E0" to="E3"/>
	<trip id="366" depart="374" from="E0" to="E3"/>
	<trip id="367" depart="374" from="E0" to="E3"/>
	<trip id="368" depart="376" from="E0" to="E3"/>
	<trip id="369" depart="377" from="E0" to="E3"/>
	<trip id="370" depart="378" from="E0" to="E3"/>
	<trip id="371" depart="378" from="E0" to="E3"/>
	<trip id="372" depart="378" from="E0" to="E3"/>
	<trip id="373" depart="380" from="E0" to="E3"/>
	<trip id="374" depart="380" from="E0" to="E3"/>
	<trip id="375" depart="382" from="E0" to="E3"/>
	<trip id="376" depart="383" from="E0" to="E3"/>
	<trip id="377" depart="384" from="E0" to="E3"/>
	<trip id="378" depart="384" from="E0" to="E3"/>
	<trip id="379" depart="384" from="E0" to="E3"/>
	<trip id="380" depart="386" from="E0" to="E3"/>
	<trip id="381" depart="388" from="E0" to="E3"/>
	<trip id="382" depart="389" from="E0" to="E3"/>
	<trip id="383" depart="392" from="E0" to="E3"/>
	<trip id="384" depart="393" from="E0" to="E3"/>
	<trip id="385" depart="394" from="E0" to="E3"/>
	<trip id="386" depart="397" from="E0" to="E3"/>
	<trip id="387" depart="398" from="E0" to="E3"/>
	<trip id="388" depart="398" from="E0" to="E3"/>
	<trip id="389" depart="399" from="E0" to="E3"/>
	<trip id="390" depart="403" from="E0" to="E3"/>
	<trip id="391" depart="403" from="E0" to="E3"/>
	<trip id="392" depart="404" from="E0" to="E3"/>
	<trip id="393" depart="406" from="E0" to="E3"/>
	<trip id="394" depart="406" from="E0" to="E3"/>
	<trip id="395" depart="408" from="E0" to="E3"/>
	<trip id="396" depart="409" from="E0" to="E3"/>
	<trip id="397" depart="412" from="E0" to="E3"/>
	<trip id="398" depart="417" from="E0" to="E3"/>
	<trip id="399" depart="417" from="E0" to="E3"/>
	<trip id="400" depart="417" from="E0" to="E3"/>
	<trip id="401" depart="418" from="E0" to="E3"/>
	<trip id="402" depart="418" from="E0" to="E3"/>
	<trip id="403" depart="418" from="E0" to="E3"/>
	<trip id="404" depart="419" from="E0" to="E3"/>
	<trip id="405" depart="419" from="E0" to="E3"/>
	<trip id="406" depart="420" from="E0" to="E3"/>
	<trip id="407" depart="423" from="E0" to="E3"/>
	<trip id="408" depart="423" from="E0" to="E3"/>
	<trip id="409" depart="426" from="E0" to="E3"/>
	<trip id="410" depart="427" from="E0" to="E3"/>
	<trip id="411" depart="428" from="E0" to="E3"/>
	<trip id="412" depart="429" from="E0" to="E3"/>
	<trip id="413" depart="429" from="E0" to="E3"/>
	<trip id="414" depart="429" from="E0" to="E3"/>
	<trip id="415" depart="430" from="E0" to="E3"/>
	<trip id="416" depart="430" from="E0" to="E3"/>
	<trip id="417" depart="431" from="E0" to="E3"/>
	<trip id="418" depart="431" from="E0" to="E3"/>
	<trip id="419" depart="431" from="E0" to="E3"/>
	<trip id="420" depart="431" from="E0" to="E3"/>
	<trip id="421" depart="432" from="E0" to="E3"/>
	<trip id="422" depart="433" from="E0" to="E3"/>
	<trip id="423" depart="434" from="E0" to="E3"/>
	<trip id="424" depart="435" from="E0" to="E3"/>
	<trip id="425" depart="437" from="E0" to="E3"/>
	<trip id="426" depart="441" from="E0" to="E3"/>
	<trip id="427" depart="441" from="E0" to="E3"/>
	<trip id="428" depart="441" from="E0" to="E3"/>
	<trip id="429" depart="443" from="E0" to="E3"/>
	<trip id="430" depart="443" from="E0" to="E3"/>
	<trip id="431" depart="444" from="E0" to="E3"/>
	<trip id="432" depart="444" from="E0" to="E3"/>
	<trip id="433" depart="444" from="E0" to="E3"/>
	<trip id="434" depart="445" from="E0" to="E3"/>
	<trip id="435" depart="445" from="E0" to="E3"/>
	<trip id="436" depart="447" from="E0" to="E3"/>
	<trip id="437" depart="447" from="E0" to="E3"/>
	<trip id="438" depart="448" from="E0" to="E3"/>
	<trip id="439" depart="449" from="E0" to="E3"/>
	<trip id="440" depart="450" from="E0" to="E3"/>
	<trip id="441" depart="452" from="E0" to="E3"/>
	<trip id="442" depart="454" from="E0" to="E3"/>
	<trip id="443" depart="454" from="E0" to="E3"/>
	<trip id="444" depart="454" from="E0" to="E3"/>
	<trip id="445" depart="456" from="E0" to="E3"/>
	<trip id="446" depart="456" from="E0" to="E3"/>
	<trip id="447" depart="458" from="E0" to="E3"/>
	<trip id="448" depart="458" from="E0" to="E3"/>
	<trip id="449" depart="459" from="E0" to="E3"/>
	<trip id="450" depart="461" from="E0" to="E3"/>
	<trip id="451" depart="462" from="E0" to="E3"/>
	<trip id="452" depart="462" from="E0" to="E3"/>
	<trip id="453" depart="464" from="E0" to="E3"/>
	<trip id="454" depart="466" from="E0" to="E3"/>
	<trip id="455" depart="466" from="E0" to="E3"/>
	<trip id="456" depart="467" from="E0" to="E3"/>
	<trip id="457" depart="467" from="E0" to="E3"/>
	<trip id="458" depart="471" from="E0" to="E3"/>
	<trip id="459" depart="472" from="E0" to="E3"/>
	<trip id="460" depart="473" from="E0" to="E3"/>
	<trip id="461" depart="474" from="E0" to="E3"/>
	<trip id="462" depart="475" from="E0" to="E3"/>
	<trip id="463" depart="475" from="E0" to="E3"/>
	<trip id="464" depart="477" from="E0" to="E3"/>
	<trip id="465" depart="484" from="E0" to="E3"/>
	<trip id="466" depart="485" from="E0" to="E3"/>
	<trip id="467" depart="485" from="E0" to="E3"/>
	<trip id="468" depart="489" from="E0" to="E3"/>
	<trip id="469" depart="491" from="E0" to="E3"/>
	<trip id="470" depart="493" from="E0" to="E3"/>
	<trip id="471" depart="496" from="E0" to="E3"/>
	<trip id="472" depart="498" from="E0" to="E3"/>
	<trip id="473" depart="499" from="E0" to="E3"/>
	<trip id="474" depart="499" from="E0" to="E3"/>
	<trip id="475" depart="500" from="E0" to="E3"/>
	<trip id="476" depart="504" from="E0" to="E3"/>
	<trip id="477" depart="504" from="E0" to="E3"/>
	<trip id="478" depart="506" from="E0" to="E3"/>
	<trip id="479" depart="506" from="E0" to="E3"/>
	<trip id="480" depart="506" from="E0" to="E3"/>
	<trip id="481" depart="507" from="E0" to="E3"/>
	<trip id="482" depart="508" from="E0" to="E3"/>
	<trip id="483" depart="510" from="E0" to="E3"/>
	<trip id="484" depart="510" from="E0" to="E3"/>
	<trip id="485" depart="513" from="E0" to="E3"/>
	<trip id="486" depart="514" from="E0" to="E3"/>
	<trip id="487" depart="514" from="E0" to="E3"/>
	<trip id="488" depart="516" from="E0" to="E3"/>
	<trip id="489" depart="520" from="E0" to="E3"/>
	<trip id="490" depart="521" from="E0" to="E3"/>
	<trip id="491" depart="521" from="E0" to="E3"/>
	<trip id="492" depart="522" from="E0" to="E3"/>
	<trip id="493" depart="522" from="E0" to="E3"/>
	<trip id="494" depart="523" from="E0" to="E3"/>
	<trip id="495" depart="523" from="E0" to="E3"/>
	<trip id="496" depart="523" from="E0" to="E3"/>
	<trip id="497" depart="524" from="E0" to="E3"/>
	<trip id="498" depart="525" from="E0" to="E3"/>
	<trip id="499" depart="526" from="E0" to="E3"/>
	<trip id="500" depart="526" from="E0" to="E3"/>
	<trip id="501" depart="526" from="E0" to="E3"/>
	<trip id="502" depart="527" from="E0" to="E3"/>
	<trip id="503" depart="527" from="E0" to="E3"/>
	<trip id="504" depart="527" from="E0" to="E3"/>
	<trip id="505" depart="528" from="E0" to="E3"/>
	<trip id="506" depart="529" from="E0" to="E3"/>
	<trip id="507" depart="530" from="E0" to="E3"/>
	<trip id="508" depart="531" from="E0" to="E3"/>
	<trip id="509" depart="533" from="E0" to="E3"/>
	<trip id="510" depart="534" from="E0" to="E3"/>
	<trip id="511" depart="535" from="E0" to="E3"/>
	<trip id="512" depart="535" from="E0" to="E3"/>
	<trip id="513" depart="537" from="E0" to="E3"/>
	<trip id="514" depart="538" from="E0" to="E3"/>
	<trip id="515" depart="540" from="E0" to="E3"/>
	<trip id="516" depart="540" from="E0" to="E3"/>
	<trip id="517" depart="540" from="E0" to="E3"/>
	<trip id="518" depart="541" from="E0" to="E3"/>
	<trip id="519" depart="543" from="E0" to="E3"/>
	<trip id="520" depart="543" from="E0" to="E3"/>
	<trip id="521" depart="543" from="E0" to="E3"/>
	<trip id="522" depart="543" from="E0" to="E3"/>
	<trip id="523" depart="545" from="E0" to="E3"/>
	<trip id="524" depart="545" from="E0" to="E3"/>
	<trip id="525" depart="546" from="E0" to="E3"/>
	<trip id="526" depart="548" from="E0" to="E3"/>
	<trip id="527" depart="549" from="E0" to="E3"/>
	<trip id="528" depart="550" from="E0" to="E3"/>
	<trip id="529" depart="550" from="E0" to="E3"/>
	<trip id="530" depart="550" from="E0" to="E3"/>
	<trip id="531" depart="550" from="E0" to="E3"/>
	<trip id="532" depart="552" from="E0" to="E3"/>
	<trip id="533" depart="555" from="E0" to="E3"/>
	<trip id="534" depart="555" from="E0" to="E3"/>
	<trip id="535" depart="556" from="E0" to="E3"/>
	<trip id="536" depart="556" from="E0" to="E3"/>
	<trip id="537" depart="558" from="E0" to="E3"/>
	<trip id="538" depart="560" from="E0" to="E3"/>
	<trip id="539" depart="561" from="E0" to="E3"/>
	<trip id="540" depart="562" from="E0" to="E3"/>
	<trip id="541" depart="562" from="E0" to="E3"/>
	<trip id="542" depart="562" from="E0" to="E3"/>
	<trip id="543" depart="563" from="E0" to="E3"/>
	<trip id="544" depart="564" from="E0" to="E3"/>
	<trip id="545" depart="564" from="E0" to="E3"/>
	<trip id="546" depart="567" from="E0" to="E3"/>
	<trip id="547" depart="568" from="E0" to="E3"/>
	<trip id="548" depart="568" from="E0" to="E3"/>
	<trip id="549" depart="571" from="E0" to="E3"/>
	<trip id="550" depart="571" from="E0" to="E3"/>
	<trip id="551" depart="573" from="E0" to="E3"/>
	<trip id="552" depart="573" from="E0" to="E3"/>
	<trip id="553" depart="574" from="E0" to="E3"/>
	<trip id="554" depart="575" from="E0" to="E3"/>
	<trip id="555" depart="575" from="E0" to="E3"/>
	<trip id="556" depart="576" from="E0" to="E3"/>
	<trip id="557" depart="577" from="E0" to="E3"/>
	<trip id="558" depart="578" from="E0" to="E3"/>
	<trip id="559" depart="578" from="E0" to="E3"/>
	<trip id="560" depart="579" from="E0" to="E3"/>
	<trip id="561" depart="581" from="E0" to="E3"/>
	<trip id="562" depart="583" from="E0" to="E3"/>
	<trip id="563" depart="584" from="E0" to="E3"/>
	<trip id="564" depart="584" from="E0" to="E3"/>
	<trip id="565" depart="585" from="E0" to="E3"/>
	<trip id="566" depart="585" from="E0" to="E3"/>
	<trip id="567" depart="585" from="E0" to="E3"/>
	<trip id="568" depart="585" from="E0" to="E3"/>
	<trip id="569" depart="587" from="E0" to="E3"/>
	<trip id="570" depart="587" from="E0" to="E3"/>
	<trip id="571" depart="588" from="E0" to="E3"/>
	<trip id="572" depart="589" from="E0" to="E3"/>
	<trip id="573" depart="591" from="E0" to="E3"/>
	<trip id="574" depart="591" from="E0" to="E3"/>
	<trip id="575" depart="592" from="E0" to="E3"/>
	<trip id="576" depart="593" from="E0" to="E3"/>
	<trip id="577" depart="593" from="E0" to="E3"/>
	<trip id="578" depart="594" from="E0" to="E3"/>
	<trip id="579" depart="596" from="E0" to="E3"/>
	<trip id="580" depart="599" from="E0" to="E3"/>
	<trip id="581" depart="600" from="E0" to="E3"/>
	<trip id="582" depart="601" from="E0" to="E3"/>
	<trip id="583" depart="602" from="E0" to="E3"/>
	<trip id="584" depart="603" from="E0" to="E3"/>
	<trip id="585" depart="605" from="E0" to="E3"/>
	<trip id="586" depart="606" from="E0" to="E3"/>
	<trip id="587" depart="606" from="E0" to="E3"/>
	<trip id="588" depart="608" from="E0" to="E3"/>
	<trip id="589" depart="609" from="E0" to="E3"/>
	<trip id="590" depart="610" from="E0" to="E3"/>
	<trip id="591" depart="612" from="E0" to="E3"/>
	<trip id="592" depart="613" from="E0" to="E3"/>
	<trip id="593" depart="616" from="E0" to="E3"/>
	<trip id="594" depart="617" from="E0" to="E3"/>
	<trip id="595" depart="618" from="E0" to="E3"/>
	<trip id="596" depart="619" from="E0" to="E3"/>
	<trip id="597" depart="620" from="E0" to="E3"/>
	<trip id="598" depart="620" from="E0" to="E3"/>
	<trip id="599" depart="621" from="E0" to="E3"/>
	<trip id="600" depart="621" from="E0" to="E3"/>
	<trip id="601" depart="621" from="E0" to="E3"/>
	<trip id="602" depart="622" from="E0" to="E3"/>
	<trip id="603" depart="622" from="E0" to="E3"/>
	<trip id="604" depart="622" from="E0" to="E3"/>
	<trip id="605" depart="623" from="E0" to="E3"/>
	<trip id="606" depart="625" from="E0" to="E3"/>
	<trip id="607" depart="625" from="E0" to="E3"/>
	<trip id="608" depart="627" from="E0" to="E3"/>
	<trip id="609" depart="627" from="E0" to="E3"/>
	<trip id="610" depart="629" from="E0" to="E3"/>
	<trip id="611" depart="630" from="E0" to="E3"/>
	<trip id="612" depart="631" from="E0" to="E3"/>
	<trip id="613" depart="631" from="E0" to="E3"/>