<?xml version="1.0" ?>
<routes xmlns:xsi="&quot;http://www.w3.org/2001/XMLSchema-instance&quot;" xsi:noNamespaceSchemaLocation="&quot;http://sumo.dlr.de/xsd/routes_file.xsd&quot;">
	<trip id="2" depart="0" from="422685671#2" to="-597602753#1"/>
	<trip id="3" depart="2" from="105681660#12" to="-318908683#1"/>
	<trip id="4" depart="3" from="-260998164#3" to="-318908683#1"/>
	<trip id="5" depart="6" from="918280985" to="15374898#0-AddedOffRampEdge"/>
	<trip id="6" depart="6" from="597602756#0" to="-318908683#1"/>
	<trip id="7" depart="7" from="422685671#2" to="260998164#0"/>
	<trip id="8" depart="8" from="105681660#12" to="-318908683#1"/>
	<trip id="9" depart="9" from="105681660#12" to="-318908683#1"/>
	<trip id="10" depart="10" from="422688973" to="15374898#0-AddedOffRampEdge"/>
	<trip id="11" depart="12" from="105681660#12" to="15374898#0-AddedOffRampEdge"/>
	<trip id="12" depart="13" from="422688973" to="-597602756#0"/>
	<trip id="13" depart="13" from="105681660#12" to="918280984"/>
	<trip id="14" depart="13" from="422688973" to="-318908683#1"/>
	<trip id="15" depart="14" from="422685671#2" to="422688976#1"/>
	<trip id="16" depart="14" from="105681660#12" to="15374898#0-AddedOffRampEdge"/>
	<trip id="17" depart="16" from="105681660#12" to="-597602753#1"/>
	<trip id="18" depart="19" from="318908683#0" to="422688976#1"/>
	<trip id="19" depart="20" from="422685671#2" to="-597602753#1"/>
	<trip id="20" depart="20" from="597602753#0" to="15374898#0-AddedOffRampEdge"/>
	<trip id="21" depart="22" from="918280985" to="-318908683#1"/>
	<trip id="22" depart="23" from="105681660#12" to="-597602756#0"/>
	<trip id="23" depart="25" from="918280985" to="-105681660#20"/>
	<trip id="24" depart="25" from="-260998164#3" to="-597602753#1"/>
	<trip id="25" depart="26" from="918280985" to="15374898#0-AddedOffRampEdge"/>
	<trip id="26" depart="27" from="597602753#0" to="-318908683#1"/>
	<trip id="27" depart="29" from="422688973" to="-105681660#20"/>
	<trip id="28" depart="30" from="-260998164#3" to="422688976#1"/>
	<trip id="29" depart="31" from="-260998164#3" to="-105681660#20"/>
	<trip id="30" depart="34" from="597602753#0" to="-597602756#0"/>
	<trip id="31" depart="34" from="422688973" to="-597602756#0"/>
	<trip id="32" depart="34" from="918280985" to="-597602753#1"/>
	<trip id="33" depart="36" from="-260998164#3" to="-597602756#0"/>
	<trip id="34" depart="36" from="105681660#12" to="422688976#1"/>
	<trip id="35" depart="36" from="105681660#12" to="-597602756#0"/>
	<trip id="36" depart="37" from="422685671#2" to="-597602753#1"/>
	<trip id="37" depart="37" from="318908683#0" to="-597602756#0"/>
	<trip id="38" depart="38" from="105681660#12" to="15374898#0-AddedOffRampEdge"/>
	<trip id="39" depart="39" from="-260998164#3" to="15374898#0-AddedOffRampEdge"/>
	<trip id="40" depart="39" from="422685671#2" to="422688976#1"/>
	<trip id="41" depart="42" from="422685671#2" to="-597602756#0"/>
	<trip id="42" depart="42" from="422688973" to="15374898#0-AddedOffRampEdge"/>
	<trip id="43" depart="43" from="-260998164#3" to="-597602753#1"/>
	<trip id="44" depart="43" from="318908683#0" to="-597602753#1"/>
	<trip id="45" depart="44" from="422688973" to="15374898#0-AddedOffRampEdge"/>
	<trip id="46" depart="44" from="918280985" to="-597602753#1"/>
	<trip id="47" depart="47" from="422688973" to="-597602753#1"/>
	<trip id="48" depart="47" from="422685671#2" to="-597602756#0"/>
	<trip id="49" depart="47" from="422688973" to="-597602756#0"/>
	<trip id="50" depart="51" from="422685671#2" to="918280984"/>
	<trip id="51" depart="52" from="-260998164#3" to="-597602756#0"/>
	<trip id="52" depart="53" from="422688973" to="15374898#0-AddedOffRampEdge"/>
	<trip id="53" depart="53" from="-260998164#3" to="-597602756#0"/>
	<trip id="54" depart="54" from="422688973" to="15374898#0-AddedOffRampEdge"/>
	<trip id="55" depart="55" from="422688973" to="-597602756#0"/>
	<trip id="56" depart="55" from="918280985" to="260998164#0"/>
	<trip id="57" depart="55" from="318908683#0" to="-597602753#1"/>
	<trip id="58" depart="56" from="918280985" to="-318908683#1"/>
	<trip id="59" depart="56" from="-260998164#3" to="918280984"/>
	<trip id="60" depart="57" from="105681660#12" to="918280984"/>
	<trip id="61" depart="58" from="-260998164#3" to="918280984"/>
	<trip id="62" depart="58" from="318908683#0" to="-105681660#20"/>
	<trip id="63" depart="59" from="422688973" to="-105681660#20"/>
	<trip id="64" depart="59" from="597602753#0" to="-105681660#20"/>
	<trip id="65" depart="60" from="105681660#12" to="260998164#0"/>
	<trip id="66" depart="61" from="318908683#0" to="-597602753#1"/>
	<trip id="67" depart="61" from="105681660#12" to="-597602756#0"/>
	<trip id="68" depart="62" from="422685671#2" to="260998164#0"/>
	<trip id="69" depart="63" from="597602753#0" to="260998164#0"/>
	<trip id="70" depart="63" from="422688973" to="-597602753#1"/>
	<trip id="71" depart="66" from="422688973" to="15374898#0-AddedOffRampEdge"/>
	<trip id="72" depart="66" from="597602753#0" to="260998164#0"/>
	<trip id="73" depart="68" from="597602756#0" to="-318908683#1"/>
	<trip id="74" depart="70" from="105681660#12" to="-597602753#1"/>
	<trip id="75" depart="71" from="-260998164#3" to="-597602753#1"/>
	<trip id="76" depart="74" from="597602756#0" to="-105681660#20"/>
	<trip id="77" depart="75" from="422685671#2" to="918280984"/>
	<trip id="78" depart="75" from="105681660#12" to="-318908683#1"/>
	<trip id="79" depart="76" from="-260998164#3" to="-318908683#1"/>
	<trip id="80" depart="76" from="597602753#0" to="15374898#0-AddedOffRampEdge"/>
	<trip id="81" depart="76" from="105681660#12" to="-318908683#1"/>
	<trip id="82" depart="77" from="597602756#0" to="15374898#0-AddedOffRampEdge"/>
	<trip id="83" depart="79" from="318908683#0" to="422688976#1"/>
	<trip id="84" depart="79" from="105681660#12" to="260998164#0"/>
	<trip id="85" depart="79" from="-260998164#3" to="-597602756#0"/>
	<trip id="86" depart="80" from="-260998164#3" to="422688976#1"/>
	<trip id="87" depart="80" from="-260998164#3" to="918280984"/>
	<trip id="88" depart="80" from="-260998164#3" to="-597602756#0"/>
	<trip id="89" depart="80" from="422688973" to="-318908683#1"/>
	<trip id="90" depart="81" from="597602756#0" to="918280984"/>
	<trip id="91" depart="81" from="422685671#2" to="918280984"/>
	<trip id="92" depart="82" from="422688973" to="-318908683#1"/>
	<trip id="93" depart="84" from="597602753#0" to="15374898#0-AddedOffRampEdge"/>
	<trip id="94" depart="85" from="422688973" to="260998164#0"/>
	<trip id="95" depart="85" from="422688973" to="15374898#0-AddedOffRampEdge"/>
	<trip id="96" depart="85" from="422688973" to="-105681660#20"/>
	<trip id="97" depart="88" from="105681660#12" to="422688976#1"/>
	<trip id="98" depart="88" from="318908683#0" to="-597602756#0"/>
	<trip id="99" depart="89" from="-260998164#3" to="-597602756#0"/>
	<trip id="100" depart="90" from="597602756#0" to="422688976#1"/>
	<trip id="101" depart="92" from="318908683#0" to="422688976#1"/>
	<trip id="102" depart="92" from="918280985" to="-597602756#0"/>
	<trip id="103" depart="94" from="597602753#0" to="260998164#0"/>
	<trip id="104" depart="94" from="422688973" to="260998164#0"/>
	<trip id="105" depart="94" from="918280985" to="-597602756#0"/>
	<trip id="106" depart="94" from="-260998164#3" to="15374898#0-AddedOffRampEdge"/>
	<trip id="107" depart="94" from="597602756#0" to="-318908683#1"/>
	<trip id="108" depart="94" from="918280985" to="260998164#0"/>
	<trip id="109" depart="97" from="597602756#0" to="260998164#0"/>
	<trip id="110" depart="99" from="105681660#12" to="918280984"/>
	<trip id="111" depart="102" from="318908683#0" to="918280984"/>
	<trip id="112" depart="102" from="318908683#0" to="-597602753#1"/>
	<trip id="113" depart="103" from="318908683#0" to="-597602756#0"/>
	<trip id="114" depart="103" from="318908683#0" to="-597602753#1"/>
	<trip id="115" depart="103" from="422688973" to="15374898#0-AddedOffRampEdge"/>
	<trip id="116" depart="104" from="105681660#12" to="260998164#0"/>
	<trip id="117" depart="104" from="597602756#0" to="-597602753#1"/>
	<trip id="118" depart="106" from="597602756#0" to="-318908683#1"/>
	<trip id="119" depart="106" from="422685671#2" to="-597602753#1"/>
	<trip id="120" depart="108" from="422685671#2" to="260998164#0"/>
	<trip id="121" depart="108" from="105681660#12" to="422688976#1"/>
	<trip id="122" depart="109" from="597602756#0" to="-318908683#1"/>
	<trip id="123" depart="110" from="-260998164#3" to="-597602756#0"/>
	<trip id="124" depart="113" from="597602756#0" to="260998164#0"/>
	<trip id="125" depart="113" from="-260998164#3" to="15374898#0-AddedOffRampEdge"/>
	<trip id="126" depart="119" from="318908683#0" to="-597602756#0"/>
	<trip id="127" depart="119" from="918280985" to="-597602753#1"/>
	<trip id="128" depart="121" from="422688973" to="-597602753#1"/>
	<trip id="129" depart="124" from="918280985" to="15374898#0-AddedOffRampEdge"/>
	<trip id="130" depart="125" from="597602756#0" to="422688976#1"/>
	<trip id="131" depart="126" from="318908683#0" to="-597602753#1"/>
	<trip id="132" depart="126" from="318908683#0" to="-597602753#1"/>
	<trip id="133" depart="130" from="318908683#0" to="260998164#0"/>
	<trip id="134" depart="131" from="422688973" to="-105681660#20"/>
	<trip id="135" depart="131" from="105681660#12" to="260998164#0"/>
	<trip id="136" depart="132" from="-260998164#3" to="-318908683#1"/>
	<trip id="137" depart="134" from="422685671#2" to="260998164#0"/>
	<trip id="138" depart="135" from="318908683#0" to="422688976#1"/>
	<trip id="139" depart="135" from="597602756#0" to="918280984"/>
	<trip id="140" depart="137" from="422685671#2" to="422688976#1"/>
	<trip id="141" depart="137" from="318908683#0" to="-105681660#20"/>
	<trip id="142" depart="139" from="-260998164#3" to="918280984"/>
	<trip id="143" depart="139" from="318908683#0" to="422688976#1"/>
	<trip id="144" depart="140" from="422688973" to="260998164#0"/>
	<trip id="145" depart="142" from="597602756#0" to="422688976#1"/>
	<trip id="146" depart="143" from="422688973" to="-597602753#1"/>
	<trip id="147" depart="143" from="597602753#0" to="15374898#0-AddedOffRampEdge"/>
	<trip id="148" depart="143" from="918280985" to="-318908683#1"/>
	<trip id="149" depart="146" from="422685671#2" to="-597602753#1"/>
	<trip id="150" depart="147" from="597602753#0" to="-318908683#1"/>
	<trip id="151" depart="148" from="422688973" to="-105681660#20"/>
	<trip id="152" depart="148" from="918280985" to="-105681660#20"/>
	<trip id="153" depart="148" from="105681660#12" to="918280984"/>
	<trip id="154" depart="149" from="422688973" to="15374898#0-AddedOffRampEdge"/>
	<trip id="155" depart="149" from="422685671#2" to="-597602753#1"/>
	<trip id="156" depart="150" from="918280985" to="15374898#0-AddedOffRampEdge"/>
	<trip id="157" depart="151" from="918280985" to="-597602756#0"/>
	<trip id="158" depart="151" from="318908683#0" to="422688976#1"/>
	<trip id="159" depart="152" from="422688973" to="-597602753#1"/>
	<trip id="160" depart="152" from="-260998164#3" to="-597602756#0"/>
	<trip id="161" depart="153" from="597602756#0" to="-105681660#20"/>
	<trip id="162" depart="154" from="597602756#0" to="-318908683#1"/>
	<trip id="163" depart="154" from="422685671#2" to="-597602756#0"/>
	<trip id="164" depart="155" from="422688973" to="-105681660#20"/>
	<trip id="165" depart="155" from="918280985" to="-597602753#1"/>
	<trip id="166" depart="155" from="597602756#0" to="15374898#0-AddedOffRampEdge"/>
	<trip id="167" depart="155" from="422688973" to="260998164#0"/>
	<trip id="168" depart="155" from="918280985" to="15374898#0-AddedOffRampEdge"/>
	<trip id="169" depart="157" from="422688973" to="-597602753#1"/>
	<trip id="170" depart="157" from="318908683#0" to="-597602756#0"/>
	<trip id="171" depart="158" from="105681660#12" to="-597602753#1"/>
	<trip id="172" depart="158" from="-260998164#3" to="-105681660#20"/>
	<trip id="173" depart="160" from="422685671#2" to="918280984"/>
	<trip id="174" depart="161" from="597602756#0" to="15374898#0-AddedOffRampEdge"/>
	<trip id="175" depart="161" from="597602753#0" to="918280984"/>
	<trip id="176" depart="164" from="422685671#2" to="-597602756#0"/>
	<trip id="177" depart="167" from="918280985" to="-597602756#0"/>
	<trip id="178" depart="168" from="597602753#0" to="918280984"/>
	<trip id="179" depart="168" from="597602756#0" to="260998164#0"/>
	<trip id="180" depart="168" from="422688973" to="-105681660#20"/>
	<trip id="181" depart="171" from="918280985" to="-597602756#0"/>
	<trip id="182" depart="173" from="597602753#0" to="422688976#1"/>
	<trip id="183" depart="173" from="422688973" to="-597602756#0"/>
	<trip id="184" depart="174" from="422685671#2" to="918280984"/>
	<trip id="185" depart="176" from="422685671#2" to="-105681660#20"/>
	<trip id="186" depart="178" from="318908683#0" to="918280984"/>
	<trip id="187" depart="178" from="918280985" to="15374898#0-AddedOffRampEdge"/>
	<trip id="188" depart="179" from="105681660#12" to="918280984"/>
	<trip id="189" depart="180" from="422685671#2" to="-597602753#1"/>
	<trip id="190" depart="180" from="105681660#12" to="-318908683#1"/>
	<trip id="191" depart="180" from="597602756#0" to="-318908683#1"/>
	<trip id="192" depart="181" from="318908683#0" to="-105681660#20"/>
	<trip id="193" depart="182" from="918280985" to="15374898#0-AddedOffRampEdge"/>
	<trip id="194" depart="183" from="422685671#2" to="-105681660#20"/>
	<trip id="195" depart="185" from="422688973" to="-597602753#1"/>
	<trip id="196" depart="186" from="105681660#12" to="15374898#0-AddedOffRampEdge"/>
	<trip id="197" depart="188" from="105681660#12" to="-597602756#0"/>
	<trip id="198" depart="190" from="318908683#0" to="-597602753#1"/>
	<trip id="199" depart="190" from="105681660#12" to="-318908683#1"/>
	<trip id="200" depart="190" from="318908683#0" to="918280984"/>
	<trip id="201" depart="191" from="422688973" to="15374898#0-AddedOffRampEdge"/>
	<trip id="202" depart="191" from="422688973" to="-597602753#1"/>
	<trip id="203" depart="192" from="422685671#2" to="918280984"/>
	<trip id="204" depart="196" from="105681660#12" to="422688976#1"/>
	<trip id="205" depart="197" from="597602753#0" to="422688976#1"/>
	<trip id="206" depart="197" from="-260998164#3" to="422688976#1"/>
	<trip id="207" depart="198" from="422688973" to="15374898#0-AddedOffRampEdge"/>
	<trip id="208" depart="199" from="918280985" to="-318908683#1"/>
	<trip id="209" depart="200" from="318908683#0" to="-597602756#0"/>
	<trip id="210" depart="201" from="318908683#0" to="422688976#1"/>
	<trip id="211" depart="204" from="318908683#0" to="-105681660#20"/>
	<trip id="212" depart="205" from="422688973" to="15374898#0-AddedOffRampEdge"/>
	<trip id="213" depart="206" from="597602756#0" to="15374898#0-AddedOffRampEdge"/>
	<trip id="214" depart="206" from="318908683#0" to="-597602753#1"/>
	<trip id="215" depart="207" from="597602753#0" to="15374898#0-AddedOffRampEdge"/>
	<trip id="216" depart="207" from="918280985" to="-105681660#20"/>
	<trip id="217" depart="208" from="918280985" to="-597602753#1"/>
	<trip id="218" depart="208" from="918280985" to="-105681660#20"/>
	<trip id="219" depart="208" from="597602756#0" to="-105681660#20"/>
	<trip id="220" depart="209" from="105681660#12" to="15374898#0-AddedOffRampEdge"/>
	<trip id="221" depart="209" from="318908683#0" to="918280984"/>
	<trip id="222" depart="212" from="597602753#0" to="-597602756#0"/>
	<trip id="223" depart="212" from="422688973" to="15374898#0-AddedOffRampEdge"/>
	<trip id="224" depart="213" from="422685671#2" to="918280984"/>
	<trip id="225" depart="214" from="318908683#0" to="260998164#0"/>
	<trip id="226" depart="216" from="918280985" to="-105681660#20"/>
	<trip id="227" depart="217" from="105681660#12" to="-597602753#1"/>
	<trip id="228" depart="217" from="318908683#0" to="260998164#0"/>
	<trip id="229" depart="218" from="-260998164#3" to="-318908683#1"/>
	<trip id="230" depart="219" from="318908683#0" to="422688976#1"/>
	<trip id="231" depart="220" from="597602756#0" to="-318908683#1"/>
	<trip id="232" depart="222" from="318908683#0" to="918280984"/>
	<trip id="233" depart="224" from="918280985" to="15374898#0-AddedOffRampEdge"/>
	<trip id="234" depart="225" from="597602753#0" to="-597602756#0"/>
	<trip id="235" depart="225" from="422685671#2" to="-597602753#1"/>
	<trip id="236" depart="226" from="105681660#12" to="918280984"/>
	<trip id="237" depart="228" from="422688973" to="15374898#0-AddedOffRampEdge"/>
	<trip id="238" depart="231" from="597602753#0" to="-318908683#1"/>
	<trip id="239" depart="231" from="105681660#12" to="-597602756#0"/>
	<trip id="240" depart="231" from="422685671#2" to="-597602753#1"/>
	<trip id="241" depart="232" from="318908683#0" to="-597602753#1"/>
	<trip id="242" depart="232" from="318908683#0" to="-105681660#20"/>
	<trip id="243" depart="232" from="422688973" to="-597602756#0"/>
	<trip id="244" depart="233" from="105681660#12" to="-597602753#1"/>
	<trip id="245" depart="234" from="-260998164#3" to="-105681660#20"/>
	<trip id="246" depart="236" from="422685671#2" to="-597602756#0"/>
	<trip id="247" depart="236" from="597602756#0" to="15374898#0-AddedOffRampEdge"/>
	<trip id="248" depart="236" from="918280985" to="15374898#0-AddedOffRampEdge"/>
	<trip id="249" depart="237" from="918280985" to="-597602753#1"/>
	<trip id="250" depart="238" from="318908683#0" to="260998164#0"/>
	<trip id="251" depart="238" from="318908683#0" to="-597602756#0"/>
	<trip id="252" depart="240" from="422685671#2" to="260998164#0"/>
	<trip id="253" depart="242" from="918280985" to="-597602756#0"/>
	<trip id="254" depart="245" from="422688973" to="-597602756#0"/>
	<trip id="255" depart="247" from="597602753#0" to="260998164#0"/>
	<trip id="256" depart="247" from="597602753#0" to="15374898#0-AddedOffRampEdge"/>
	<trip id="257" depart="248" from="597602756#0" to="-597602753#1"/>
	<trip id="258" depart="249" from="318908683#0" to="-597602753#1"/>
	<trip id="259" depart="250" from="597602756#0" to="-105681660#20"/>
	<trip id="260" depart="252" from="105681660#12" to="15374898#0-AddedOffRampEdge"/>
	<trip id="261" depart="253" from="422688973" to="-105681660#20"/>
	<trip id="262" depart="256" from="-260998164#3" to="-105681660#20"/>
	<trip id="263" depart="257" from="918280985" to="-105681660#20"/>
	<trip id="264" depart="258" from="597602756#0" to="422688976#1"/>
	<trip id="265" depart="258" from="318908683#0" to="-105681660#20"/>
	<trip id="266" depart="260" from="597602753#0" to="-105681660#20"/>
	<trip id="267" depart="260" from="597602756#0" to="-318908683#1"/>
	<trip id="268" depart="261" from="422685671#2" to="422688976#1"/>
	<trip id="269" depart="262" from="422688973" to="-318908683#1"/>
	<trip id="270" depart="262" from="105681660#12" to="-597602753#1"/>
	<trip id="271" depart="262" from="-260998164#3" to="-597602756#0"/>
	<trip id="272" depart="262" from="-260998164#3" to="15374898#0-AddedOffRampEdge"/>
	<trip id="273" depart="263" from="-260998164#3" to="15374898#0-AddedOffRampEdge"/>
	<trip id="274" depart="263" from="422685671#2" to="918280984"/>
	<trip id="275" depart="263" from="918280985" to="-597602756#0"/>
	<trip id="276" depart="267" from="-260998164#3" to="-318908683#1"/>
	<trip id="277" depart="268" from="-260998164#3" to="918280984"/>
	<trip id="278" depart="268" from="-260998164#3" to="-597602756#0"/>
	<trip id="279" depart="269" from="422685671#2" to="260998164#0"/>
	<trip id="280" depart="269" from="422688973" to="15374898#0-AddedOffRampEdge"/>
	<trip id="281" depart="269" from="318908683#0" to="-597602756#0"/>
	<trip id="282" depart="270" from="918280985" to="-318908683#1"/>
	<trip id="283" depart="271" from="-260998164#3" to="-105681660#20"/>
	<trip id="284" depart="271" from="422688973" to="15374898#0-AddedOffRampEdge"/>
	<trip id="285" depart="274" from="318908683#0" to="918280984"/>
	<trip id="286" depart="275" from="422685671#2" to="422688976#1"/>
	<trip id="287" depart="276" from="105681660#12" to="422688976#1"/>
	<trip id="288" depart="278" from="597602756#0" to="-597602753#1"/>
	<trip id="289" depart="281" from="597602753#0" to="15374898#0-AddedOffRampEdge"/>
	<trip id="290" depart="281" from="-260998164#3" to="-318908683#1"/>
	<trip id="291" depart="281" from="-260998164#3" to="918280984"/>
	<trip id="292" depart="283" from="597602756#0" to="15374898#0-AddedOffRampEdge"/>
	<trip id="293" depart="284" from="422685671#2" to="-597602753#1"/>
	<trip id="294" depart="287" from="-260998164#3" to="-597602753#1"/>
	<trip id="295" depart="287" from="422685671#2" to="918280984"/>
	<trip id="296" depart="290" from="597602753#0" to="-105681660#20"/>
	<trip id="297" depart="291" from="-260998164#3" to="15374898#0-AddedOffRampEdge"/>
	<trip id="298" depart="292" from="-260998164#3" to="-597602753#1"/>
	<trip id="299" depart="293" from="422688973" to="15374898#0-AddedOffRampEdge"/>
	<trip id="300" depart="294" from="597602753#0" to="-597602756#0"/>
	<trip id="301" depart="296" from="105681660#12" to="-318908683#1"/>
	<trip id="302" depart="296" from="422688973" to="-597602756#0"/>
	<trip id="303" depart="296" from="597602756#0" to="422688976#1"/>
	<trip id="304" depart="297" from="918280985" to="-597602756#0"/>
	<trip id="305" depart="300" from="-260998164#3" to="15374898#0-AddedOffRampEdge"/>
	<trip id="306" depart="301" from="597602756#0" to="422688976#1"/>
	<trip id="307" depart="302" from="597602756#0" to="-597602753#1"/>
	<trip id="308" depart="302" from="105681660#12" to="422688976#1"/>
	<trip id="309" depart="304" from="597602756#0" to="260998164#0"/>
	<trip id="310" depart="305" from="422685671#2" to="918280984"/>
	<trip id="311" depart="305" from="422688973" to="15374898#0-AddedOffRampEdge"/>
	<trip id="312" depart="306" from="918280985" to="-318908683#1"/>
	<trip id="313" depart="307" from="318908683#0" to="918280984"/>
	<trip id="314" depart="307" from="-260998164#3" to="15374898#0-AddedOffRampEdge"/>
	<trip id="315" depart="310" from="597602756#0" to="422688976#1"/>
	<trip id="316" depart="310" from="318908683#0" to="260998164#0"/>
	<trip id="317" depart="311" from="422688973" to="-318908683#1"/>
	<trip id="318" depart="312" from="318908683#0" to="260998164#0"/>
	<trip id="319" depart="313" from="318908683#0" to="422688976#1"/>
	<trip id="320" depart="313" from="-260998164#3" to="-318908683#1"/>
	<trip id="321" depart="314" from="105681660#12" to="422688976#1"/>
	<trip id="322" depart="315" from="597602753#0" to="260998164#0"/>
	<trip id="323" depart="316" from="918280985" to="-597602756#0"/>
	<trip id="324" depart="317" from="422688973" to="-597602756#0"/>
	<trip id="325" depart="318" from="-260998164#3" to="-105681660#20"/>
	<trip id="326" depart="319" from="422685671#2" to="422688976#1"/>
	<trip id="327" depart="321" from="-260998164#3" to="422688976#1"/>
	<trip id="328" depart="323" from="422685671#2" to="260998164#0"/>
	<trip id="329" depart="323" from="422688973" to="-318908683#1"/>
	<trip id="330" depart="323" from="918280985" to="-597602753#1"/>
	<trip id="331" depart="327" from="422685671#2" to="-597602756#0"/>
	<trip id="332" depart="327" from="422688973" to="-597602756#0"/>
	<trip id="333" depart="328" from="-260998164#3" to="918280984"/>
	<trip id="334" depart="330" from="422685671#2" to="918280984"/>
	<trip id="335" depart="331" from="105681660#12" to="-597602756#0"/>
	<trip id="336" depart="332" from="597602756#0" to="422688976#1"/>
	<trip id="337" depart="333" from="597602753#0" to="-597602756#0"/>
	<trip id="338" depart="335" from="918280985" to="15374898#0-AddedOffRampEdge"/>
	<trip id="339" depart="336" from="318908683#0" to="918280984"/>
	<trip id="340" depart="336" from="918280985" to="15374898#0-AddedOffRampEdge"/>
	<trip id="341" depart="336" from="105681660#12" to="15374898#0-AddedOffRampEdge"/>
	<trip id="342" depart="338" from="-260998164#3" to="-318908683#1"/>
	<trip id="343" depart="339" from="422685671#2" to="260998164#0"/>
	<trip id="344" depart="341" from="105681660#12" to="-318908683#1"/>
	<trip id="345" depart="341" from="318908683#0" to="918280984"/>
	<trip id="346" depart="343" from="318908683#0" to="-597602753#1"/>
	<trip id="347" depart="344" from="318908683#0" to="-597602756#0"/>
	<trip id="348" depart="345" from="597602753#0" to="-105681660#20"/>
	<trip id="349" depart="347" from="-260998164#3" to="-105681660#20"/>
	<trip id="350" depart="348" from="422685671#2" to="422688976#1"/>
	<trip id="351" depart="349" from="422688973" to="-105681660#20"/>
	<trip id="352" depart="349" from="422685671#2" to="-597602756#0"/>
	<trip id="353" depart="351" from="422688973" to="-105681660#20"/>
	<trip id="354" depart="351" from="422685671#2" to="-597602753#1"/>
	<trip id="355" depart="351" from="597602753#0" to="260998164#0"/>
	<trip id="356" depart="353" from="318908683#0" to="260998164#0"/>
	<trip id="357" depart="354" from="105681660#12" to="15374898#0-AddedOffRampEdge"/>
	<trip id="358" depart="355" from="318908683#0" to="260998164#0"/>
	<trip id="359" depart="355" from="918280985" to="260998164#0"/>
	<trip id="360" depart="355" from="422688973" to="15374898#0-AddedOffRampEdge"/>
	<trip id="361" depart="357" from="318908683#0" to="260998164#0"/>
	<trip id="362" depart="358" from="-260998164#3" to="422688976#1"/>
	<trip id="363" depart="358" from="422685671#2" to="260998164#0"/>
	<trip id="364" depart="359" from="597602753#0" to="-105681660#20"/>
	<trip id="365" depart="359" from="422685671#2" to="-597602756#0"/>
	<trip id="366" depart="360" from="597602756#0" to="-597602753#1"/>
	<trip id="367" depart="365" from="597602753#0" to="-318908683#1"/>
	<trip id="368" depart="366" from="105681660#12" to="918280984"/>
	<trip id="369" depart="367" from="-260998164#3" to="-597602756#0"/>
	<trip id="370" depart="368" from="-260998164#3" to="-318908683#1"/>
	<trip id="371" depart="369" from="422685671#2" to="-105681660#20"/>
	<trip id="372" depart="370" from="422688973" to="260998164#0"/>
	<trip id="373" depart="371" from="318908683#0" to="918280984"/>
	<trip id="374" depart="372" from="422688973" to="-105681660#20"/>
	<trip id="375" depart="372" from="422685671#2" to="-597602756#0"/>
	<trip id="376" depart="373" from="597602756#0" to="-597602753#1"/>
	<trip id="377" depart="373" from="422688973" to="-597602756#0"/>
	<trip id="378" depart="373" from="318908683#0" to="-597602753#1"/>
	<trip id="379" depart="374" from="597602753#0" to="15374898#0-AddedOffRampEdge"/>
	<trip id="380" depart="378" from="105681660#12" to="-597602753#1"/>
	<trip id="381" depart="379" from="597602756#0" to="918280984"/>
	<trip id="382" depart="379" from="597602753#0" to="422688976#1"/>
	<trip id="383" depart="381" from="918280985" to="-597602753#1"/>
	<trip id="384" depart="381" from="597602756#0" to="422688976#1"/>
	<trip id="385" depart="383" from="-260998164#3" to="-105681660#20"/>
	<trip id="386" depart="385" from="422688973" to="-597602756#0"/>
	<trip id="387" depart="385" from="597602753#0" to="260998164#0"/>
	<trip id="388" depart="386" from="105681660#12" to="-318908683#1"/>
	<trip id="389" depart="386" from="597602753#0" to="-318908683#1"/>
	<trip id="390" depart="387" from="-260998164#3" to="-105681660#20"/>
	<trip id="391" depart="387" from="105681660#12" to="918280984"/>
	<trip id="392" depart="387" from="422688973" to="-105681660#20"/>
	<trip id="393" depart="387" from="422688973" to="-597602753#1"/>
	<trip id="394" depart="388" from="918280985" to="-597602753#1"/>
	<trip id="395" depart="388" from="918280985" to="260998164#0"/>
	<trip id="396" depart="389" from="597602756#0" to="422688976#1"/>
	<trip id="397" depart="394" from="-260998164#3" to="15374898#0-AddedOffRampEdge"/>
	<trip id="398" depart="395" from="105681660#12" to="422688976#1"/>
	<trip id="399" depart="398" from="-260998164#3" to="-318908683#1"/>
	<trip id="400" depart="399" from="597602756#0" to="422688976#1"/>
	<trip id="401" depart="401" from="597602753#0" to="422688976#1"/>
	<trip id="402" depart="404" from="422688973" to="260998164#0"/>
	<trip id="403" depart="405" from="597602753#0" to="-105681660#20"/>
	<trip id="404" depart="405" from="918280985" to="-105681660#20"/>
	<trip id="405" depart="405" from="105681660#12" to="260998164#0"/>
	<trip id="406" depart="406" from="-260998164#3" to="-597602753#1"/>
	<trip id="407" depart="406" from="-260998164#3" to="-597602753#1"/>
	<trip id="408" depart="408" from="918280985" to="-597602756#0"/>
	<trip id="409" depart="408" from="422685671#2" to="-597602756#0"/>
	<trip id="410" depart="409" from="-260998164#3" to="-597602753#1"/>
	<trip id="411" depart="410" from="597602756#0" to="260998164#0"/>
	<trip id="412" depart="411" from="-260998164#3" to="-597602756#0"/>
	<trip id="413" depart="413" from="597602756#0" to="-105681660#20"/>
	<trip id="414" depart="413" from="422685671#2" to="-597602753#1"/>
	<trip id="415" depart="415" from="-260998164#3" to="15374898#0-AddedOffRampEdge"/>
	<trip id="416" depart="416" from="597602753#0" to="260998164#0"/>
	<trip id="417" depart="416" from="918280985" to="-318908683#1"/>
	<trip id="418" depart="417" from="105681660#12" to="-318908683#1"/>
	<trip id="419" depart="418" from="318908683#0" to="-597602756#0"/>
	<trip id="420" depart="419" from="318908683#0" to="-597602756#0"/>
	<trip id="421" depart="420" from="318908683#0" to="-105681660#20"/>
	<trip id="422" depart="421" from="597602756#0" to="260998164#0"/>
	<trip id="423" depart="421" from="597602756#0" to="260998164#0"/>
	<trip id="424" depart="422" from="918280985" to="-318908683#1"/>
	<trip id="425" depart="425" from="105681660#12" to="-597602753#1"/>
	<trip id="426" depart="425" from="918280985" to="-105681660#20"/>
	<trip id="427" depart="426" from="422685671#2" to="260998164#0"/>
	<trip id="428" depart="426" from="105681660#12" to="-597602753#1"/>
	<trip id="429" depart="427" from="105681660#12" to="918280984"/>
	<trip id="430" depart="428" from="918280985" to="-105681660#20"/>
	<trip id="431" depart="428" from="-260998164#3" to="-318908683#1"/>
	<trip id="432" depart="429" from="422685671#2" to="-105681660#20"/>
	<trip id="433" depart="429" from="918280985" to="-597602756#0"/>