<?xml version="1.0" ?>
<routes xmlns:xsi="&quot;http://www.w3.org/2001/XMLSchema-instance&quot;" xsi:noNamespaceSchemaLocation="&quot;http://sumo.dlr.de/xsd/routes_file.xsd&quot;">
	<trip id="2" depart="0" from="13" to="-2876"/>
	<trip id="3" depart="0" from="2285" to="2425"/>
	<trip id="4" depart="0" from="-686" to="-2300"/>
	<trip id="5" depart="3" from="-1005" to="2876"/>
	<trip id="6" depart="4" from="3744" to="-730"/>
	<trip id="7" depart="4" from="-3437" to="-3122"/>
	<trip id="8" depart="5" from="-601" to="1404"/>
	<trip id="9" depart="6" from="2961" to="-348"/>
	<trip id="10" depart="7" from="1526" to="3719"/>
	<trip id="11" depart="11" from="-3847" to="-870"/>
	<trip id="12" depart="12" from="-3744" to="3155"/>
	<trip id="13" depart="14" from="840" to="1941"/>
	<trip id="14" depart="17" from="1005" to="2447"/>
	<trip id="15" depart="18" from="9" to="19"/>
	<trip id="16" depart="19" from="-379" to="-1771"/>
	<trip id="17" depart="19" from="-2494" to="-2502"/>
	<trip id="18" depart="19" from="-3437" to="3787"/>
	<trip id="19" depart="23" from="650" to="-1891"/>
	<trip id="20" depart="23" from="-3825" to="-3885"/>
	<trip id="21" depart="24" from="-1483" to="3800"/>
	<trip id="22" depart="28" from="-138" to="-2714"/>
	<trip id="23" depart="30" from="-3439" to="64"/>
	<trip id="24" depart="30" from="-2149" to="-4501"/>
	<trip id="25" depart="31" from="3772" to="1950"/>
	<trip id="26" depart="33" from="1499" to="3799"/>
	<trip id="27" depart="35" from="-2447" to="2963"/>
	<trip id="28" depart="36" from="3131" to="-612"/>
	<trip id="29" depart="37" from="-3772" to="15"/>
	<trip id="30" depart="38" from="-1783" to="1199"/>
	<trip id="31" depart="40" from="2185" to="2300"/>
	<trip id="32" depart="41" from="3439" to="-4258"/>
	<trip id="33" depart="41" from="-2166" to="-3772"/>
	<trip id="34" depart="42" from="1524" to="1919"/>
	<trip id="35" depart="43" from="-1388" to="3920"/>
	<trip id="36" depart="43" from="64" to="-4494"/>
	<trip id="37" depart="46" from="2766" to="-7"/>
	<trip id="38" depart="46" from="1882" to="623"/>
	<trip id="39" depart="48" from="-1363" to="-3835"/>
	<trip id="40" depart="48" from="-4473" to="3734"/>
	<trip id="41" depart="48" from="-3739" to="-1404"/>
	<trip id="42" depart="49" from="7" to="-1057"/>
	<trip id="43" depart="50" from="-1431" to="-3883"/>
	<trip id="44" depart="50" from="613" to="880"/>
	<trip id="45" depart="50" from="-3779" to="123"/>
	<trip id="46" depart="51" from="-3907" to="-2210"/>
	<trip id="47" depart="52" from="1447" to="-1517"/>
	<trip id="48" depart="53" from="-1526" to="535"/>
	<trip id="49" depart="53" from="-1391" to="-13"/>
	<trip id="50" depart="54" from="-1483" to="-1769"/>
	<trip id="51" depart="54" from="-2185" to="-589"/>
	<trip id="52" depart="54" from="3155" to="1391"/>
	<trip id="53" depart="55" from="1464" to="116"/>
	<trip id="54" depart="55" from="-2453" to="-3437"/>
	<trip id="55" depart="57" from="-523" to="332"/>
	<trip id="56" depart="59" from="-1093" to="-1011"/>
	<trip id="57" depart="61" from="-2171" to="2168"/>
	<trip id="58" depart="63" from="-123" to="332"/>
	<trip id="59" depart="65" from="-2120" to="2876"/>
	<trip id="60" depart="66" from="614" to="-876"/>
	<trip id="61" depart="66" from="-2149" to="1425"/>
	<trip id="62" depart="66" from="2872" to="2425"/>
	<trip id="63" depart="68" from="-123" to="126"/>
	<trip id="64" depart="68" from="-1033" to="-1431"/>
	<trip id="65" depart="73" from="-4257" to="-1941"/>
	<trip id="66" depart="73" from="-3799" to="-1950"/>
	<trip id="67" depart="75" from="2183" to="-612"/>
	<trip id="68" depart="75" from="-3439" to="1532"/>
	<trip id="69" depart="76" from="577" to="-4474"/>
	<trip id="70" depart="77" from="-2194" to="11"/>
	<trip id="71" depart="79" from="1526" to="-2453"/>
	<trip id="72" depart="79" from="1483" to="-1057"/>
	<trip id="73" depart="79" from="2168" to="-2120"/>
	<trip id="74" depart="80" from="-1359" to="535"/>
	<trip id="75" depart="80" from="-1391" to="-728"/>
	<trip id="76" depart="80" from="585" to="-4494"/>
	<trip id="77" depart="82" from="1033" to="2732"/>
	<trip id="78" depart="82" from="64" to="1033"/>
	<trip id="79" depart="83" from="383" to="-3166"/>
	<trip id="80" depart="84" from="3799" to="-4257"/>
	<trip id="81" depart="85" from="-4505" to="-3435"/>
	<trip id="82" depart="86" from="3744" to="-4527"/>
	<trip id="83" depart="86" from="1523" to="623"/>
	<trip id="84" depart="87" from="837" to="642"/>
	<trip id="85" depart="87" from="2881" to="-1029"/>
	<trip id="86" depart="91" from="-2209" to="-25"/>
	<trip id="87" depart="91" from="3611" to="3603"/>
	<trip id="88" depart="93" from="-3121" to="3885"/>
	<trip id="89" depart="95" from="-1942" to="882"/>
	<trip id="90" depart="96" from="1483" to="2732"/>
	<trip id="91" depart="96" from="-3166" to="-3740"/>
	<trip id="92" depart="96" from="-15" to="-3137"/>
	<trip id="93" depart="97" from="3131" to="3907"/>
	<trip id="94" depart="98" from="-3607" to="-1775"/>
	<trip id="95" depart="100" from="3800" to="3734"/>
	<trip id="96" depart="100" from="492" to="642"/>
	<trip id="97" depart="102" from="4527" to="2300"/>
	<trip id="98" depart="102" from="-621" to="-4501"/>
	<trip id="99" depart="103" from="349" to="325"/>
	<trip id="100" depart="103" from="2732" to="-1483"/>
	<trip id="101" depart="103" from="-1930" to="-1323"/>
	<trip id="102" depart="104" from="-1029" to="1323"/>
	<trip id="103" depart="104" from="-64" to="-1404"/>
	<trip id="104" depart="106" from="-3742" to="-2110"/>
	<trip id="105" depart="106" from="-3799" to="1935"/>
	<trip id="106" depart="106" from="867" to="2766"/>
	<trip id="107" depart="110" from="3907" to="-1517"/>
	<trip id="108" depart="110" from="-601" to="-119"/>
	<trip id="109" depart="112" from="-3761" to="4257"/>
	<trip id="110" depart="113" from="-3769" to="-1005"/>
	<trip id="111" depart="113" from="3769" to="-4027"/>
	<trip id="112" depart="113" from="-3772" to="1769"/>
	<trip id="113" depart="113" from="1427" to="-121"/>
	<trip id="114" depart="116" from="3799" to="-3611"/>
	<trip id="115" depart="116" from="-2200" to="-623"/>
	<trip id="116" depart="117" from="-3607" to="-119"/>
	<trip id="117" depart="117" from="-4258" to="-3742"/>
	<trip id="118" depart="117" from="4527" to="-3773"/>
	<trip id="119" depart="117" from="3897" to="2447"/>
	<trip id="120" depart="118" from="-2201" to="2194"/>
	<trip id="121" depart="119" from="-3437" to="1391"/>
	<trip id="122" depart="120" from="-1930" to="-2110"/>
	<trip id="123" depart="121" from="-2412" to="-1201"/>
	<trip id="124" depart="122" from="1345" to="3907"/>
	<trip id="125" depart="123" from="-1425" to="3849"/>
	<trip id="126" depart="124" from="-614" to="333"/>
	<trip id="127" depart="124" from="-1774" to="-2291"/>
	<trip id="128" depart="125" from="-614" to="-1441"/>
	<trip id="129" depart="126" from="-3800" to="-840"/>
	<trip id="130" depart="126" from="-535" to="-625"/>
	<trip id="131" depart="127" from="-1033" to="-4494"/>
	<trip id="132" depart="128" from="621" to="4501"/>
	<trip id="133" depart="129" from="-3607" to="-3131"/>
	<trip id="134" depart="130" from="-2200" to="-349"/>
	<trip id="135" depart="133" from="-612" to="-588"/>
	<trip id="136" depart="133" from="-4527" to="3252"/>
	<trip id="137" depart="135" from="-344" to="4469"/>
	<trip id="138" depart="135" from="1027" to="570"/>
	<trip id="139" depart="137" from="-17" to="4256"/>
	<trip id="140" depart="142" from="-2202" to="1391"/>
	<trip id="141" depart="144" from="597" to="3162"/>
	<trip id="142" depart="145" from="4501" to="3328"/>
	<trip id="143" depart="146" from="-2453" to="-1535"/>
	<trip id="144" depart="147" from="3252" to="-2200"/>
	<trip id="145" depart="148" from="-4257" to="356"/>
	<trip id="146" depart="149" from="2963" to="1783"/>
	<trip id="147" depart="149" from="-365" to="3769"/>
	<trip id="148" depart="150" from="2171" to="4050"/>
	<trip id="149" depart="151" from="3639" to="-1345"/>
	<trip id="150" depart="152" from="7" to="-25"/>
	<trip id="151" depart="153" from="-621" to="621"/>
	<trip id="152" depart="154" from="1483" to="-319"/>
	<trip id="153" depart="154" from="-1883" to="3"/>
	<trip id="154" depart="154" from="-1883" to="-138"/>
	<trip id="155" depart="154" from="-579" to="344"/>
	<trip id="156" depart="156" from="-1447" to="3151"/>
	<trip id="157" depart="156" from="-1523" to="-1883"/>
	<trip id="158" depart="157" from="2423" to="-3603"/>
	<trip id="159" depart="157" from="2979" to="-730"/>
	<trip id="160" depart="158" from="-1533" to="-1517"/>
	<trip id="161" depart="158" from="3119" to="1526"/>
	<trip id="162" depart="159" from="344" to="326"/>
	<trip id="163" depart="162" from="-2128" to="1345"/>
	<trip id="164" depart="165" from="1359" to="-3719"/>
	<trip id="165" depart="165" from="11" to="3603"/>
	<trip id="166" depart="166" from="-3" to="-3095"/>
	<trip id="167" depart="166" from="-1447" to="-3435"/>
	<trip id="168" depart="166" from="1517" to="-3603"/>
	<trip id="169" depart="167" from="585" to="-1093"/>
	<trip id="170" depart="168" from="2210" to="13"/>
	<trip id="171" depart="168" from="2893" to="-2412"/>
	<trip id="172" depart="169" from="-613" to="1447"/>
	<trip id="173" depart="169" from="-3719" to="-3825"/>
	<trip id="174" depart="170" from="2200" to="2502"/>
	<trip id="175" depart="171" from="4031" to="-1033"/>
	<trip id="176" depart="172" from="3837" to="381"/>
	<trip id="177" depart="172" from="-38" to="336"/>
	<trip id="178" depart="173" from="-1533" to="-3162"/>
	<trip id="179" depart="173" from="2201" to="1882"/>
	<trip id="180" depart="174" from="-2453" to="3437"/>
	<trip id="181" depart="174" from="-679" to="-1526"/>
	<trip id="182" depart="176" from="-319" to="-1499"/>
	<trip id="183" depart="178" from="-882" to="361"/>
	<trip id="184" depart="179" from="2453" to="-2110"/>
	<trip id="185" depart="180" from="1404" to="-2120"/>
	<trip id="186" depart="180" from="-2183" to="2171"/>
	<trip id="187" depart="182" from="2209" to="-2206"/>
	<trip id="188" depart="183" from="379" to="686"/>
	<trip id="189" depart="183" from="-3847" to="1930"/>
	<trip id="190" depart="183" from="-2202" to="2449"/>
	<trip id="191" depart="184" from="3814" to="1057"/>
	<trip id="192" depart="185" from="1201" to="3093"/>
	<trip id="193" depart="186" from="623" to="-1011"/>
	<trip id="194" depart="186" from="-848" to="3800"/>
	<trip id="195" depart="190" from="-1944" to="-3740"/>
	<trip id="196" depart="191" from="3611" to="-3607"/>
	<trip id="197" depart="193" from="1499" to="-3853"/>
	<trip id="198" depart="193" from="-4527" to="-2285"/>
	<trip id="199" depart="195" from="-846" to="3764"/>
	<trip id="200" depart="196" from="-1941" to="2194"/>
	<trip id="201" depart="197" from="2188" to="-1427"/>
	<trip id="202" depart="197" from="-1441" to="-383"/>
	<trip id="203" depart="202" from="2194" to="-4539"/>
	<trip id="204" depart="203" from="1798" to="1093"/>
	<trip id="205" depart="203" from="-3122" to="-3607"/>
	<trip id="206" depart="205" from="1767" to="330"/>
	<trip id="207" depart="208" from="-3121" to="3091"/>
	<trip id="208" depart="209" from="-2128" to="-2963"/>
	<trip id="209" depart="209" from="2425" to="-3920"/>
	<trip id="210" depart="209" from="-2185" to="4256"/>
	<trip id="211" depart="210" from="-2872" to="4495"/>
	<trip id="212" depart="210" from="-2421" to="608"/>
	<trip id="213" depart="210" from="-3162" to="-332"/>
	<trip id="214" depart="211" from="1797" to="3787"/>
	<trip id="215" depart="211" from="2285" to="4473"/>
	<trip id="216" depart="212" from="-3435" to="-4256"/>
	<trip id="217" depart="215" from="1199" to="-686"/>
	<trip id="218" depart="216" from="2128" to="2110"/>
	<trip id="219" depart="217" from="-523" to="882"/>
	<trip id="220" depart="217" from="-1431" to="2732"/>
	<trip id="221" depart="218" from="-734" to="-728"/>
	<trip id="222" depart="218" from="523" to="-3145"/>
	<trip id="223" depart="219" from="349" to="-2200"/>
	<trip id="224" depart="223" from="-4527" to="-3155"/>
	<trip id="225" depart="224" from="-608" to="-696"/>
	<trip id="226" depart="226" from="867" to="-4474"/>
	<trip id="227" depart="227" from="-2206" to="11"/>
	<trip id="228" depart="227" from="504" to="-867"/>
	<trip id="229" depart="227" from="9" to="-1345"/>
	<trip id="230" depart="228" from="-3166" to="1783"/>
	<trip id="231" depart="228" from="-1944" to="-2447"/>
	<trip id="232" depart="228" from="348" to="-3837"/>
	<trip id="233" depart="229" from="2895" to="-2183"/>
	<trip id="234" depart="229" from="3093" to="326"/>
	<trip id="235" depart="230" from="-123" to="2149"/>
	<trip id="236" depart="231" from="-4050" to="1950"/>
	<trip id="237" depart="231" from="1415" to="2206"/>
	<trip id="238" depart="231" from="-3119" to="-1930"/>
	<trip id="239" depart="232" from="-1941" to="-117"/>
	<trip id="240" depart="232" from="1535" to="523"/>
	<trip id="241" depart="234" from="837" to="1429"/>
	<trip id="242" depart="234" from="330" to="-4505"/>
	<trip id="243" depart="235" from="-3091" to="3145"/>
	<trip id="244" depart="235" from="-1201" to="3907"/>
	<trip id="245" depart="236" from="-3734" to="-1535"/>
	<trip id="246" depart="237" from="1363" to="-2714"/>
	<trip id="247" depart="238" from="2607" to="-2895"/>
	<trip id="248" depart="239" from="-1033" to="38"/>
	<trip id="249" depart="239" from="3611" to="1357"/>
	<trip id="250" depart="239" from="-2185" to="-1359"/>
	<trip id="251" depart="242" from="4258" to="2289"/>
	<trip id="252" depart="242" from="1429" to="2453"/>
	<trip id="253" depart="243" from="3151" to="-3773"/>
	<trip id="254" depart="244" from="-361" to="-1342"/>
	<trip id="255" depart="244" from="-1798" to="-696"/>
	<trip id="256" depart="245" from="-313" to="870"/>
	<trip id="257" depart="245" from="-2149" to="-1415"/>
	<trip id="258" depart="246" from="-1526" to="-4050"/>
	<trip id="259" depart="249" from="-2876" to="-1930"/>
	<trip id="260" depart="252" from="-2278" to="-126"/>
	<trip id="261" depart="253" from="-3328" to="-2206"/>
	<trip id="262" depart="253" from="-2477" to="2209"/>
	<trip id="263" depart="253" from="-734" to="-1935"/>
	<trip id="264" depart="253" from="1773" to="-684"/>
	<trip id="265" depart="255" from="1798" to="-523"/>
	<trip id="266" depart="255" from="38" to="3121"/>
	<trip id="267" depart="257" from="-4050" to="330"/>
	<trip id="268" depart="258" from="-1783" to="13"/>
	<trip id="269" depart="258" from="-2502" to="-1396"/>
	<trip id="270" depart="260" from="1342" to="2198"/>
	<trip id="271" depart="262" from="-2158" to="1199"/>
	<trip id="272" depart="262" from="3897" to="356"/>
	<trip id="273" depart="262" from="3814" to="-3155"/>
	<trip id="274" depart="265" from="3151" to="-2120"/>
	<trip id="275" depart="265" from="-1942" to="-3801"/>
	<trip id="276" depart="265" from="3137" to="-732"/>
	<trip id="277" depart="267" from="3607" to="2421"/>
	<trip id="278" depart="267" from="1388" to="-3740"/>
	<trip id="279" depart="268" from="-608" to="1950"/>
	<trip id="280" depart="270" from="1199" to="-840"/>
	<trip id="281" depart="271" from="356" to="-2453"/>
	<trip id="282" depart="271" from="-2893" to="-732"/>
	<trip id="283" depart="271" from="-3091" to="332"/>
	<trip id="284" depart="271" from="-356" to="601"/>
	<trip id="285" depart="273" from="1935" to="1891"/>
	<trip id="286" depart="275" from="-650" to="19"/>
	<trip id="287" depart="277" from="1797" to="119"/>
	<trip id="288" depart="277" from="4539" to="-1464"/>
	<trip id="289" depart="278" from="2872" to="-3883"/>
	<trip id="290" depart="278" from="1343" to="2200"/>
	<trip id="291" depart="279" from="1027" to="-3091"/>
	<trip id="292" depart="280" from="-3121" to="3825"/>
	<trip id="293" depart="280" from="1005" to="126"/>
	<trip id="294" depart="281" from="3740" to="-3145"/>
	<trip id="295" depart="281" from="-1797" to="1404"/>
	<trip id="296" depart="282" from="2903" to="3772"/>
	<trip id="297" depart="283" from="2300" to="2766"/>
	<trip id="298" depart="284" from="-1005" to="-3787"/>
	<trip id="299" depart="285" from="3435" to="125"/>
	<trip id="300" depart="285" from="-3761" to="-1357"/>
	<trip id="301" depart="285" from="840" to="-3907"/>
	<trip id="302" depart="286" from="876" to="3837"/>
	<trip id="303" depart="286" from="-3131" to="-4255"/>
	<trip id="304" depart="286" from="-1524" to="1342"/>
	<trip id="305" depart="286" from="3122" to="-639"/>
	<trip id="306" depart="288" from="1493" to="4495"/>
	<trip id="307" depart="289" from="-338" to="2439"/>
	<trip id="308" depart="289" from="3737" to="-15"/>
	<trip id="309" depart="289" from="642" to="621"/>
	<trip id="310" depart="290" from="642" to="2449"/>
	<trip id="311" depart="291" from="-2766" to="-15"/>
	<trip id="312" depart="292" from="-2502" to="2895"/>
	<trip id="313" depart="293" from="-2607" to="2158"/>
	<trip id="314" depart="294" from="3779" to="-1391"/>
	<trip id="315" depart="295" from="-1919" to="1323"/>
	<trip id="316" depart="295" from="-569" to="-2171"/>
	<trip id="317" depart="295" from="3907" to="1427"/>
	<trip id="318" depart="297" from="-492" to="3772"/>
	<trip id="319" depart="298" from="-1942" to="734"/>
	<trip id="320" depart="299" from="1057" to="-4505"/>
	<trip id="321" depart="301" from="-2289" to="2202"/>
	<trip id="322" depart="302" from="-1950" to="-1935"/>
	<trip id="323" depart="302" from="1431" to="-882"/>
	<trip id="324" depart="303" from="2200" to="-3885"/>
	<trip id="325" depart="305" from="2412" to="3166"/>
	<trip id="326" depart="306" from="1342" to="13"/>
	<trip id="327" depart="307" from="1391" to="-3145"/>
	<trip id="328" depart="308" from="4474" to="128"/>
	<trip id="329" depart="309" from="-4027" to="-3162"/>
	<trip id="330" depart="310" from="613" to="-3137"/>
	<trip id="331" depart="310" from="-3835" to="-496"/>
	<trip id="332" depart="310" from="-1427" to="-1388"/>
	<trip id="333" depart="310" from="3739" to="-623"/>
	<trip id="334" depart="311" from="1429" to="1798"/>
	<trip id="335" depart="311" from="650" to="1882"/>
	<trip id="336" depart="311" from="-4474" to="-3885"/>
	<trip id="337" depart="314" from="1883" to="4257"/>
	<trip id="338" depart="315" from="3131" to="-19"/>
	<trip id="339" depart="317" from="-2186" to="-2188"/>
	<trip id="340" depart="319" from="-734" to="336"/>
	<trip id="341" depart="319" from="-2110" to="-2969"/>
	<trip id="342" depart="320" from="2494" to="-1033"/>
	<trip id="343" depart="320" from="3907" to="-1798"/>
	<trip id="344" depart="321" from="-3737" to="698"/>
	<trip id="345" depart="321" from="-533" to="-1797"/>
	<trip id="346" depart="322" from="-2112" to="-2188"/>
	<trip id="347" depart="322" from="-1342" to="-639"/>
	<trip id="348" depart="323" from="-2188" to="3159"/>
	<trip id="349" depart="324" from="504" to="9"/>
	<trip id="350" depart="324" from="-138" to="-344"/>
	<trip id="351" depart="325" from="570" to="1773"/>
	<trip id="352" depart="326" from="-3" to="-1767"/>
	<trip id="353" depart="329" from="3814" to="1895"/>
	<trip id="354" depart="330" from="2006" to="4469"/>
	<trip id="355" depart="330" from="-1493" to="-4501"/>
	<trip id="356" depart="330" from="-1523" to="3825"/>
	<trip id="357" depart="330" from="597" to="3497"/>
	<trip id="358" depart="331" from="2186" to="3737"/>
	<trip id="359" depart="332" from="-1363" to="4049"/>
	<trip id="360" depart="333" from="-3800" to="625"/>
	<trip id="361" depart="334" from="-1930" to="3739"/>
	<trip id="362" depart="335" from="679" to="-3761"/>
	<trip id="363" depart="336" from="-597" to="3166"/>
	<trip id="364" depart="342" from="379" to="-533"/>
	<trip id="365" depart="342" from="698" to="2194"/>
	<trip id="366" depart="343" from="-867" to="-3435"/>
	<trip id="367" depart="343" from="4258" to="-25"/>
	<trip id="368" depart="346" from="1027" to="-3744"/>
	<trip id="369" depart="347" from="-696" to="-3131"/>
	<trip id="370" depart="348" from="2198" to="-848"/>
	<trip id="371" depart="349" from="533" to="15"/>
	<trip id="372" depart="349" from="589" to="-2158"/>
	<trip id="373" depart="350" from="3801" to="2439"/>
	<trip id="374" depart="351" from="-1427" to="-2188"/>
	<trip id="375" depart="352" from="-381" to="-3801"/>
	<trip id="376" depart="353" from="-2210" to="618"/>
	<trip id="377" depart="353" from="-3720" to="-597"/>
	<trip id="378" depart="354" from="-1011" to="-210"/>
	<trip id="379" depart="354" from="728" to="-3849"/>
	<trip id="380" depart="360" from="-2289" to="330"/>
	<trip id="381" depart="360" from="-3611" to="-2289"/>
	<trip id="382" depart="361" from="1944" to="2110"/>
	<trip id="383" depart="363" from="1944" to="650"/>
	<trip id="384" depart="364" from="3800" to="1930"/>
	<trip id="385" depart="364" from="2756" to="-698"/>
	<trip id="386" depart="364" from="-1011" to="38"/>
	<trip id="387" depart="365" from="-64" to="-1774"/>
	<trip id="388" depart="366" from="577" to="-3801"/>
	<trip id="389" depart="366" from="-2502" to="-3737"/>
	<trip id="390" depart="366" from="-1883" to="-1771"/>
	<trip id="391" depart="367" from="1883" to="-1941"/>
	<trip id="392" depart="367" from="1427" to="-1373"/>
	<trip id="393" depart="367" from="-3145" to="-3328"/>
	<trip id="394" depart="368" from="-1431" to="2202"/>
	<trip id="395" depart="368" from="3740" to="1363"/>
	<trip id="396" depart="370" from="4027" to="1033"/>
	<trip id="397" depart="370" from="-119" to="-4049"/>
	<trip id="398" depart="371" from="4258" to="4256"/>
	<trip id="399" depart="371" from="4467" to="-379"/>
	<trip id="400" depart="373" from="-4681" to="3639"/>
	<trip id="401" depart="374" from="2201" to="614"/>
	<trip id="402" depart="374" from="-2202" to="-2421"/>
	<trip id="403" depart="374" from="-3720" to="3800"/>
	<trip id="404" depart="375" from="3837" to="-2421"/>
	<trip id="405" depart="375" from="-3773" to="-313"/>
	<trip id="406" depart="375" from="4495" to="1057"/>
	<trip id="407" depart="377" from="-3920" to="3328"/>
	<trip id="408" depart="378" from="-1771" to="-612"/>
	<trip id="409" depart="378" from="2425" to="-2128"/>
	<trip id="410" depart="379" from="-674" to="-126"/>
	<trip id="411" depart="379" from="-674" to="2149"/>
	<trip id="412" depart="379" from="4256" to="-2714"/>
	<trip id="413" depart="380" from="-686" to="-2961"/>
	<trip id="414" depart="380" from="-3328" to="-1533"/>
	<trip id="415" depart="380" from="-674" to="-1357"/>
	<trip id="416" depart="382" from="3920" to="-1343"/>
	<trip id="417" depart="382" from="3095" to="-2872"/>
	<trip id="418" depart="382" from="-3719" to="3"/>
	<trip id="419" depart="383" from="4027" to="-2607"/>
	<trip id="420" depart="383" from="-2185" to="3799"/>
	<trip id="421" depart="385" from="-361" to="-1941"/>
	<trip id="422" depart="386" from="-1493" to="-2873"/>
	<trip id="423" depart="386" from="-1798" to="19"/>
	<trip id="424" depart="386" from="597" to="-2202"/>
	<trip id="425" depart="387" from="639" to="9"/>
	<trip id="426" depart="387" from="496" to="-4031"/>
	<trip id="427" depart="387" from="-2112" to="-383"/>
	<trip id="428" depart="388" from="639" to="3639"/>
	<trip id="429" depart="388" from="3497" to="-3814"/>
	<trip id="430" depart="391" from="2963" to="-125"/>
	<trip id="431" depart="391" from="-383" to="-1441"/>
	<trip id="432" depart="393" from="517" to="-3252"/>
	<trip id="433" depart="393" from="-3800" to="-1526"/>
	<trip id="434" depart="394" from="642" to="-517"/>
	<trip id="435" depart="397" from="-2166" to="1404"/>
	<trip id="436" depart="398" from="-4257" to="492"/>
	<trip id="437" depart="401" from="1499" to="-2183"/>
	<trip id="438" depart="403" from="-4050" to="-2963"/>
	<trip id="439" depart="404" from="585" to="2171"/>
	<trip id="440" depart="404" from="-2171" to="-1359"/>
	<trip id="441" depart="406" from="344" to="2969"/>
	<trip id="442" depart="406" from="3764" to="533"/>
	<trip id="443" depart="407" from="-4031" to="588"/>
	<trip id="444" depart="407" from="125" to="-11"/>
	<trip id="445" depart="407" from="-535" to="-1891"/>
	<trip id="446" depart="408" from="1532" to="3847"/>
	<trip id="447" depart="409" from="64" to="-3761"/>
	<trip id="448" depart="409" from="-2183" to="-3883"/>
	<trip id="449" depart="410" from="-882" to="1464"/>
	<trip id="450" depart="412" from="-344" to="-504"/>
	<trip id="451" depart="413" from="-1769" to="-2425"/>
	<trip id="452" depart="414" from="-4495" to="-3799"/>
	<trip id="453" depart="415" from="-1494" to="639"/>
	<trip id="454" depart="415" from="-3787" to="-1891"/>
	<trip id="455" depart="415" from="-2168" to="1523"/>
	<trip id="456" depart="418" from="623" to="-1501"/>
	<trip id="457" depart="419" from="-2449" to="-1767"/>
	<trip id="458" depart="419" from="-1011" to="-588"/>
	<trip id="459" depart="420" from="592" to="-1935"/>
	<trip id="460" depart="420" from="-7" to="-3837"/>
	<trip id="461" depart="421" from="867" to="1447"/>
	<trip id="462" depart="421" from="-1773" to="-2873"/>
	<trip id="463" depart="422" from="-2168" to="125"/>
	<trip id="464" depart="425" from="3720" to="-4494"/>
	<trip id="465" depart="425" from="2421" to="-7"/>
	<trip id="466" depart="425" from="1797" to="2166"/>
	<trip id="467" depart="426" from="-4256" to="-1533"/>
	<trip id="468" depart="426" from="4473" to="-319"/>
	<trip id="469" depart="426" from="2194" to="880"/>
	<trip id="470" depart="427" from="-3252" to="-3800"/>
	<trip id="471" depart="427" from="-585" to="-13"/>
	<trip id="472" depart="427" from="1524" to="2756"/>
	<trip id="473" depart="427" from="504" to="3438"/>
	<trip id="474" depart="430" from="1363" to="-2194"/>
	<trip id="475" depart="431" from="-696" to="-1783"/>
	<trip id="476" depart="432" from="-3849" to="-585"/>
	<trip id="477" depart="432" from="-4681" to="-2482"/>
	<trip id="478" depart="433" from="2423" to="-848"/>
	<trip id="479" depart="434" from="585" to="-686"/>
	<trip id="480" depart="434" from="-3151" to="589"/>
	<trip id="481" depart="436" from="3122" to="3155"/>
	<trip id="482" depart="439" from="3920" to="-2185"/>
	<trip id="483" depart="440" from="-3093" to="2876"/>
	<trip id="484" depart="442" from="-1771" to="-3121"/>
	<trip id="485" depart="442" from="-3742" to="2876"/>
	<trip id="486" depart="445" from="1883" to="4027"/>
	<trip id="487" depart="447" from="-3" to="-2112"/>
	<trip id="488" depart="447" from="2186" to="1494"/>
	<trip id="489" depart="450" from="-3787" to="2423"/>
	<trip id="490" depart="450" from="-2423" to="-3"/>
	<trip id="491" depart="451" from="-1415" to="3122"/>
	<trip id="492" depart="452" from="-9" to="123"/>
	<trip id="493" depart="454" from="-585" to="-4469"/>
	<trip id="494" depart="454" from="570" to="38"/>
	<trip id="495" depart="456" from="1891" to="1524"/>
	<trip id="496" depart="457" from="-313" to="-2210"/>
	<trip id="497" depart="458" from="577" to="-4049"/>
	<trip id="498" depart="458" from="848" to="-3835"/>
	<trip id="499" depart="459" from="3497" to="-592"/>
	<trip id="500" depart="460" from="-2961" to="-1464"/>
	<trip id="501" depart="460" from="-1944" to="1404"/>
	<trip id="502" depart="461" from="-121" to="-1323"/>
	<trip id="503" depart="461" from="4539" to="3151"/>
	<trip id="504" depart="462" from="-2903" to="1373"/>
	<trip id="505" depart="463" from="1775" to="-505"/>
	<trip id="506" depart="463" from="-128" to="2278"/>
	<trip id="507" depart="465" from="535" to="2168"/>
	<trip id="508" depart="467" from="1771" to="-1883"/>
	<trip id="509" depart="467" from="-3740" to="2128"/>
	<trip id="510" depart="469" from="-17" to="-1029"/>
	<trip id="511" depart="470" from="-2206" to="1388"/>
	<trip id="512" depart="471" from="2110" to="-11"/>
	<trip id="513" depart="473" from="3435" to="-1396"/>
	<trip id="514" depart="474" from="-326" to="3769"/>
	<trip id="515" depart="475" from="-1535" to="-7"/>
	<trip id="516" depart="476" from="-3734" to="-3885"/>
	<trip id="517" depart="476" from="-3145" to="2477"/>
	<trip id="518" depart="477" from="210" to="867"/>
	<trip id="519" depart="477" from="-1493" to="1011"/>
	<trip id="520" depart="480" from="-613" to="-3603"/>
	<trip id="521" depart="481" from="-614" to="4681"/>
	<trip id="522" depart="481" from="650" to="-3438"/>
	<trip id="523" depart="482" from="-1431" to="1767"/>
	<trip id="524" depart="483" from="-333" to="623"/>
	<trip id="525" depart="484" from="3607" to="2412"/>
	<trip id="526" depart="485" from="-13" to="-1524"/>
	<trip id="527" depart="485" from="344" to="-2607"/>
	<trip id="528" depart="485" from="326" to="2291"/>
	<trip id="529" depart="486" from="1396" to="-679"/>
	<trip id="530" depart="486" from="2120" to="-3744"/>
	<trip id="531" depart="486" from="15" to="-1767"/>
	<trip id="532" depart="488" from="125" to="-2166"/>
	<trip id="533" depart="488" from="-734" to="123"/>
	<trip id="534" depart="492" from="2482" to="2447"/>
	<trip id="535" depart="494" from="4469" to="-3437"/>
	<trip id="536" depart="494" from="-2188" to="-613"/>
	<trip id="537" depart="494" from="846" to="1942"/>
	<trip id="538" depart="494" from="3769" to="2209"/>
	<trip id="539" depart="496" from="2423" to="612"/>
	<trip id="540" depart="497" from="-4258" to="679"/>
	<trip id="541" depart="499" from="-25" to="2607"/>
	<trip id="542" depart="501" from="-2188" to="618"/>
	<trip id="543" depart="501" from="876" to="569"/>
	<trip id="544" depart="501" from="-4031" to="2285"/>
	<trip id="545" depart="504" from="-880" to="-2206"/>
	<trip id="546" depart="504" from="588" to="650"/>
	<trip id="547" depart="506" from="-3719" to="1388"/>
	<trip id="548" depart="507" from="-3772" to="1532"/>
	<trip id="549" depart="507" from="-1343" to="2194"/>
	<trip id="550" depart="508" from="-2168" to="597"/>
	<trip id="551" depart="509" from="-125" to="2873"/>
	<trip id="552" depart="513" from="3162" to="1783"/>
	<trip id="553" depart="513" from="1011" to="-3166"/>
	<trip id="554" depart="515" from="1431" to="-3885"/>
	<trip id="555" depart="515" from="-870" to="-1415"/>
	<trip id="556" depart="515" from="-3835" to="1773"/>
	<trip id="557" depart="516" from="-1425" to="1342"/>
	<trip id="558" depart="518" from="381" to="2494"/>
	<trip id="559" depart="518" from="-846" to="-3739"/>
	<trip id="560" depart="520" from="-3801" to="2183"/>
	<trip id="561" depart="520" from="-2969" to="492"/>
	<trip id="562" depart="520" from="1535" to="2893"/>
	<trip id="563" depart="520" from="848" to="3799"/>