<?xml version="1.0" ?>
<routes xmlns:xsi="&quot;http://www.w3.org/2001/XMLSchema-instance&quot;" xsi:noNamespaceSchemaLocation="&quot;http://sumo.dlr.de/xsd/routes_file.xsd&quot;">
	<trip id="2" depart="0" from="3095" to="-569"/>
	<trip id="3" depart="0" from="2201" to="732"/>
	<trip id="4" depart="1" from="319" to="876"/>
	<trip id="5" depart="3" from="-2285" to="-1464"/>
	<trip id="6" depart="4" from="-2766" to="3137"/>
	<trip id="7" depart="5" from="-1944" to="592"/>
	<trip id="8" depart="5" from="1388" to="-2291"/>
	<trip id="9" depart="5" from="-1767" to="-1919"/>
	<trip id="10" depart="5" from="3162" to="-3734"/>
	<trip id="11" depart="6" from="2291" to="2895"/>
	<trip id="12" depart="7" from="-2425" to="2291"/>
	<trip id="13" depart="9" from="625" to="-3920"/>
	<trip id="14" depart="9" from="-867" to="2194"/>
	<trip id="15" depart="9" from="117" to="-1501"/>
	<trip id="16" depart="10" from="1373" to="-1767"/>
	<trip id="17" depart="10" from="-4505" to="1944"/>
	<trip id="18" depart="11" from="2209" to="-2963"/>
	<trip id="19" depart="12" from="-2202" to="2425"/>
	<trip id="20" depart="14" from="-2206" to="1494"/>
	<trip id="21" depart="14" from="-123" to="-504"/>
	<trip id="22" depart="14" from="1357" to="2714"/>
	<trip id="23" depart="15" from="383" to="-2756"/>
	<trip id="24" depart="16" from="-684" to="3744"/>
	<trip id="25" depart="17" from="-1798" to="-3787"/>
	<trip id="26" depart="17" from="-116" to="3121"/>
	<trip id="27" depart="18" from="7" to="11"/>
	<trip id="28" depart="19" from="1357" to="-2724"/>
	<trip id="29" depart="21" from="3764" to="3137"/>
	<trip id="30" depart="22" from="-1415" to="-4473"/>
	<trip id="31" depart="23" from="-1517" to="4257"/>
	<trip id="32" depart="24" from="2421" to="1391"/>
	<trip id="33" depart="27" from="-2171" to="-3639"/>
	<trip id="34" depart="28" from="-1483" to="-333"/>
	<trip id="35" depart="29" from="-3814" to="1773"/>
	<trip id="36" depart="30" from="-3611" to="-1535"/>
	<trip id="37" depart="31" from="-2149" to="1798"/>
	<trip id="38" depart="31" from="588" to="4256"/>
	<trip id="39" depart="33" from="-2425" to="-2486"/>
	<trip id="40" depart="36" from="533" to="2300"/>
	<trip id="41" depart="36" from="-126" to="-2881"/>
	<trip id="42" depart="39" from="2285" to="2168"/>
	<trip id="43" depart="40" from="608" to="-3252"/>
	<trip id="44" depart="41" from="1427" to="-3761"/>
	<trip id="45" depart="42" from="-326" to="1427"/>
	<trip id="46" depart="43" from="-3907" to="2112"/>
	<trip id="47" depart="43" from="-4474" to="-3737"/>
	<trip id="48" depart="46" from="2291" to="-3740"/>
	<trip id="49" depart="46" from="4467" to="1941"/>
	<trip id="50" depart="47" from="3437" to="2112"/>
	<trip id="51" depart="48" from="2188" to="-1941"/>
	<trip id="52" depart="48" from="-365" to="13"/>
	<trip id="53" depart="48" from="1427" to="-2607"/>
	<trip id="54" depart="48" from="-2201" to="123"/>
	<trip id="55" depart="48" from="-4050" to="-679"/>
	<trip id="56" depart="49" from="3920" to="-734"/>
	<trip id="57" depart="50" from="-1342" to="-684"/>
	<trip id="58" depart="50" from="1517" to="-3764"/>
	<trip id="59" depart="51" from="2110" to="-2969"/>
	<trip id="60" depart="52" from="2289" to="-2482"/>
	<trip id="61" depart="52" from="-585" to="-3744"/>
	<trip id="62" depart="54" from="1532" to="-1359"/>
	<trip id="63" depart="54" from="-728" to="1774"/>
	<trip id="64" depart="56" from="-2872" to="-3814"/>
	<trip id="65" depart="59" from="-612" to="1483"/>
	<trip id="66" depart="61" from="-2766" to="577"/>
	<trip id="67" depart="62" from="2200" to="1415"/>
	<trip id="68" depart="62" from="-3611" to="3883"/>
	<trip id="69" depart="63" from="2486" to="-2903"/>
	<trip id="70" depart="65" from="3252" to="3799"/>
	<trip id="71" depart="66" from="-1342" to="3740"/>
	<trip id="72" depart="66" from="1501" to="3897"/>
	<trip id="73" depart="67" from="-618" to="3639"/>
	<trip id="74" depart="67" from="-1942" to="3907"/>
	<trip id="75" depart="68" from="3162" to="1775"/>
	<trip id="76" depart="69" from="2893" to="-1930"/>
	<trip id="77" depart="70" from="-17" to="361"/>
	<trip id="78" depart="71" from="1323" to="-3764"/>
	<trip id="79" depart="73" from="-1464" to="1767"/>
	<trip id="80" depart="73" from="-3744" to="2198"/>
	<trip id="81" depart="74" from="-3328" to="2732"/>
	<trip id="82" depart="75" from="696" to="-121"/>
	<trip id="83" depart="76" from="2173" to="-867"/>
	<trip id="84" depart="76" from="-2210" to="-1798"/>
	<trip id="85" depart="77" from="3603" to="-533"/>
	<trip id="86" depart="78" from="2183" to="-618"/>
	<trip id="87" depart="78" from="1930" to="2120"/>
	<trip id="88" depart="79" from="-3719" to="117"/>
	<trip id="89" depart="80" from="2200" to="-2425"/>
	<trip id="90" depart="82" from="-3885" to="-1391"/>
	<trip id="91" depart="82" from="4474" to="-2285"/>
	<trip id="92" depart="82" from="-2158" to="728"/>
	<trip id="93" depart="85" from="-3137" to="-2439"/>
	<trip id="94" depart="86" from="383" to="-3328"/>
	<trip id="95" depart="87" from="1950" to="3439"/>
	<trip id="96" depart="87" from="326" to="-4474"/>
	<trip id="97" depart="88" from="-3920" to="-7"/>
	<trip id="98" depart="88" from="2209" to="-3849"/>
	<trip id="99" depart="89" from="3639" to="597"/>
	<trip id="100" depart="92" from="-492" to="-2412"/>
	<trip id="101" depart="94" from="1391" to="-2173"/>
	<trip id="102" depart="94" from="117" to="-3739"/>
	<trip id="103" depart="94" from="1526" to="2486"/>
	<trip id="104" depart="95" from="3779" to="-1415"/>
	<trip id="105" depart="95" from="4681" to="-2291"/>
	<trip id="106" depart="96" from="2477" to="840"/>
	<trip id="107" depart="98" from="-3719" to="2439"/>
	<trip id="108" depart="99" from="1526" to="-3853"/>
	<trip id="109" depart="100" from="7" to="-3252"/>
	<trip id="110" depart="101" from="381" to="-3883"/>
	<trip id="111" depart="102" from="-728" to="-3093"/>
	<trip id="112" depart="106" from="-588" to="4474"/>
	<trip id="113" depart="106" from="612" to="-1783"/>
	<trip id="114" depart="107" from="-848" to="2200"/>
	<trip id="115" depart="107" from="618" to="2171"/>
	<trip id="116" depart="107" from="639" to="344"/>
	<trip id="117" depart="107" from="4050" to="3603"/>
	<trip id="118" depart="110" from="-3603" to="-2300"/>
	<trip id="119" depart="110" from="2482" to="696"/>
	<trip id="120" depart="111" from="-570" to="-2714"/>
	<trip id="121" depart="112" from="-1783" to="25"/>
	<trip id="122" depart="113" from="-4031" to="3853"/>
	<trip id="123" depart="114" from="330" to="2482"/>
	<trip id="124" depart="114" from="-579" to="-504"/>
	<trip id="125" depart="116" from="2766" to="2166"/>
	<trip id="126" depart="118" from="-1891" to="-3607"/>
	<trip id="127" depart="118" from="3091" to="-4505"/>
	<trip id="128" depart="120" from="-3137" to="3162"/>
	<trip id="129" depart="122" from="-613" to="121"/>
	<trip id="130" depart="124" from="1944" to="533"/>
	<trip id="131" depart="125" from="2285" to="-13"/>
	<trip id="132" depart="125" from="19" to="597"/>
	<trip id="133" depart="125" from="-1533" to="-2439"/>
	<trip id="134" depart="125" from="2447" to="3091"/>
	<trip id="135" depart="125" from="2183" to="-2183"/>
	<trip id="136" depart="126" from="1533" to="-3773"/>
	<trip id="137" depart="126" from="-639" to="-1027"/>
	<trip id="138" depart="129" from="732" to="-2766"/>
	<trip id="139" depart="129" from="-3095" to="-4050"/>
	<trip id="140" depart="130" from="2412" to="-3883"/>
	<trip id="141" depart="131" from="-2149" to="349"/>
	<trip id="142" depart="131" from="1944" to="730"/>
	<trip id="143" depart="133" from="4539" to="2210"/>
	<trip id="144" depart="133" from="2185" to="-2893"/>
	<trip id="145" depart="133" from="517" to="-2486"/>
	<trip id="146" depart="134" from="1343" to="-2732"/>
	<trip id="147" depart="134" from="-3837" to="3439"/>
	<trip id="148" depart="135" from="356" to="15"/>
	<trip id="149" depart="135" from="-1093" to="-2873"/>
	<trip id="150" depart="138" from="-3159" to="3252"/>
	<trip id="151" depart="139" from="338" to="-9"/>
	<trip id="152" depart="140" from="2202" to="-3799"/>
	<trip id="153" depart="142" from="2423" to="2439"/>
	<trip id="154" depart="142" from="-1494" to="1935"/>
	<trip id="155" depart="144" from="3799" to="-38"/>
	<trip id="156" depart="145" from="2724" to="3439"/>
	<trip id="157" depart="145" from="210" to="3764"/>
	<trip id="158" depart="146" from="-349" to="-686"/>
	<trip id="159" depart="151" from="2006" to="3737"/>
	<trip id="160" depart="151" from="-1342" to="-1363"/>
	<trip id="161" depart="152" from="313" to="-698"/>
	<trip id="162" depart="152" from="2300" to="-64"/>
	<trip id="163" depart="153" from="-379" to="728"/>
	<trip id="164" depart="154" from="2439" to="-3740"/>
	<trip id="165" depart="155" from="-1415" to="3122"/>
	<trip id="166" depart="156" from="696" to="-313"/>
	<trip id="167" depart="157" from="-116" to="-336"/>
	<trip id="168" depart="159" from="-1323" to="-3739"/>
	<trip id="169" depart="160" from="-1494" to="319"/>
	<trip id="170" depart="160" from="-38" to="-3607"/>
	<trip id="171" depart="161" from="2766" to="-4050"/>
	<trip id="172" depart="162" from="-623" to="-3720"/>
	<trip id="173" depart="162" from="517" to="-15"/>
	<trip id="174" depart="164" from="732" to="3119"/>
	<trip id="175" depart="164" from="336" to="2873"/>
	<trip id="176" depart="166" from="3607" to="-504"/>
	<trip id="177" depart="167" from="3145" to="123"/>
	<trip id="178" depart="167" from="3439" to="3907"/>
	<trip id="179" depart="170" from="-1883" to="-4539"/>
	<trip id="180" depart="172" from="-1363" to="-1944"/>
	<trip id="181" depart="173" from="-1797" to="-1388"/>
	<trip id="182" depart="173" from="-313" to="-2171"/>
	<trip id="183" depart="176" from="17" to="-4027"/>
	<trip id="184" depart="176" from="2166" to="3435"/>
	<trip id="185" depart="176" from="-492" to="-4049"/>
	<trip id="186" depart="178" from="1771" to="-1494"/>
	<trip id="187" depart="179" from="618" to="2961"/>
	<trip id="188" depart="179" from="1798" to="-325"/>
	<trip id="189" depart="180" from="623" to="-1447"/>
	<trip id="190" depart="181" from="-623" to="3773"/>
	<trip id="191" depart="181" from="840" to="1483"/>
	<trip id="192" depart="183" from="4257" to="-867"/>
	<trip id="193" depart="185" from="-592" to="-4256"/>
	<trip id="194" depart="185" from="2447" to="592"/>
	<trip id="195" depart="185" from="-2278" to="-3719"/>
	<trip id="196" depart="188" from="-1517" to="-3121"/>
	<trip id="197" depart="188" from="3095" to="-3719"/>
	<trip id="198" depart="189" from="1388" to="1345"/>
	<trip id="199" depart="190" from="-4505" to="-3145"/>
	<trip id="200" depart="190" from="3885" to="-4258"/>
	<trip id="201" depart="192" from="-496" to="-625"/>
	<trip id="202" depart="192" from="1342" to="601"/>
	<trip id="203" depart="192" from="-614" to="-3764"/>
	<trip id="204" depart="194" from="-1357" to="-356"/>
	<trip id="205" depart="197" from="-4255" to="3739"/>
	<trip id="206" depart="197" from="138" to="-119"/>
	<trip id="207" depart="198" from="-2112" to="698"/>
	<trip id="208" depart="199" from="3437" to="-570"/>
	<trip id="209" depart="199" from="1357" to="-1199"/>
	<trip id="210" depart="200" from="2873" to="25"/>
	<trip id="211" depart="202" from="-1396" to="-1499"/>
	<trip id="212" depart="203" from="535" to="1057"/>
	<trip id="213" depart="203" from="1526" to="-125"/>
	<trip id="214" depart="204" from="-3166" to="-1427"/>
	<trip id="215" depart="205" from="-2486" to="2166"/>
	<trip id="216" depart="209" from="-3" to="-3814"/>
	<trip id="217" depart="209" from="125" to="1919"/>
	<trip id="218" depart="212" from="3920" to="698"/>
	<trip id="219" depart="214" from="-3603" to="1415"/>
	<trip id="220" depart="216" from="589" to="1363"/>
	<trip id="221" depart="218" from="3166" to="3761"/>
	<trip id="222" depart="219" from="1494" to="3787"/>
	<trip id="223" depart="221" from="-2198" to="349"/>
	<trip id="224" depart="221" from="505" to="1891"/>
	<trip id="225" depart="222" from="326" to="338"/>
	<trip id="226" depart="222" from="3825" to="1774"/>
	<trip id="227" depart="226" from="2168" to="-1404"/>
	<trip id="228" depart="226" from="-2714" to="-1396"/>
	<trip id="229" depart="227" from="-3849" to="-601"/>
	<trip id="230" depart="227" from="-1535" to="-4027"/>
	<trip id="231" depart="227" from="-125" to="732"/>
	<trip id="232" depart="228" from="-3328" to="-2206"/>
	<trip id="233" depart="229" from="-734" to="846"/>
	<trip id="234" depart="229" from="-3328" to="-2979"/>
	<trip id="235" depart="230" from="1773" to="696"/>
	<trip id="236" depart="232" from="-623" to="-1057"/>
	<trip id="237" depart="233" from="3897" to="-684"/>
	<trip id="238" depart="235" from="2006" to="588"/>
	<trip id="239" depart="236" from="-25" to="-126"/>
	<trip id="240" depart="236" from="1201" to="732"/>
	<trip id="241" depart="238" from="-3847" to="840"/>
	<trip id="242" depart="241" from="-2876" to="-2278"/>
	<trip id="243" depart="241" from="3825" to="-2881"/>
	<trip id="244" depart="242" from="4027" to="-728"/>
	<trip id="245" depart="243" from="-1767" to="-3137"/>
	<trip id="246" depart="244" from="-2979" to="-2607"/>
	<trip id="247" depart="245" from="-1029" to="504"/>
	<trip id="248" depart="246" from="1774" to="-381"/>
	<trip id="249" depart="247" from="-4257" to="-535"/>
	<trip id="250" depart="248" from="-3740" to="1524"/>
	<trip id="251" depart="248" from="1493" to="-3155"/>
	<trip id="252" depart="248" from="4257" to="4049"/>
	<trip id="253" depart="249" from="2112" to="-2412"/>
	<trip id="254" depart="250" from="-2185" to="1357"/>
	<trip id="255" depart="251" from="-3155" to="-3162"/>
	<trip id="256" depart="252" from="-313" to="3159"/>
	<trip id="257" depart="253" from="332" to="2963"/>
	<trip id="258" depart="253" from="686" to="-642"/>
	<trip id="259" depart="253" from="-2173" to="210"/>
	<trip id="260" depart="253" from="-1775" to="-1535"/>
	<trip id="261" depart="256" from="-2425" to="4031"/>
	<trip id="262" depart="256" from="505" to="2166"/>
	<trip id="263" depart="258" from="-2412" to="-3145"/>
	<trip id="264" depart="258" from="-492" to="3920"/>
	<trip id="265" depart="258" from="-4467" to="732"/>
	<trip id="266" depart="259" from="-2893" to="-1199"/>
	<trip id="267" depart="260" from="3497" to="3835"/>
	<trip id="268" depart="260" from="-4050" to="1930"/>
	<trip id="269" depart="261" from="696" to="-1526"/>
	<trip id="270" depart="261" from="-1343" to="-496"/>
	<trip id="271" depart="262" from="-1767" to="1523"/>
	<trip id="272" depart="262" from="-2278" to="379"/>
	<trip id="273" depart="264" from="679" to="-25"/>
	<trip id="274" depart="266" from="-3328" to="-15"/>
	<trip id="275" depart="266" from="-3639" to="730"/>
	<trip id="276" depart="267" from="3166" to="-608"/>
	<trip id="277" depart="269" from="3093" to="-1373"/>
	<trip id="278" depart="271" from="-2482" to="-3853"/>
	<trip id="279" depart="272" from="-614" to="-4467"/>
	<trip id="280" depart="272" from="-64" to="3155"/>
	<trip id="281" depart="273" from="-674" to="-4031"/>
	<trip id="282" depart="273" from="734" to="-4539"/>
	<trip id="283" depart="275" from="1057" to="621"/>
	<trip id="284" depart="276" from="-4255" to="1057"/>
	<trip id="285" depart="277" from="1930" to="1883"/>
	<trip id="286" depart="277" from="-3639" to="-2210"/>
	<trip id="287" depart="277" from="-1773" to="-4474"/>
	<trip id="288" depart="278" from="-3439" to="-2202"/>
	<trip id="289" depart="279" from="-3720" to="-11"/>
	<trip id="290" depart="280" from="3764" to="-2173"/>
	<trip id="291" depart="280" from="-2724" to="-1391"/>
	<trip id="292" depart="281" from="-3162" to="1767"/>
	<trip id="293" depart="281" from="-3764" to="4539"/>
	<trip id="294" depart="285" from="325" to="-1523"/>
	<trip id="295" depart="285" from="-1359" to="379"/>
	<trip id="296" depart="286" from="-533" to="-3742"/>
	<trip id="297" depart="287" from="1396" to="601"/>
	<trip id="298" depart="287" from="-330" to="326"/>
	<trip id="299" depart="290" from="2291" to="-2278"/>
	<trip id="300" depart="295" from="326" to="-3438"/>
	<trip id="301" depart="298" from="642" to="-1357"/>
	<trip id="302" depart="299" from="-3837" to="-734"/>
	<trip id="303" depart="299" from="123" to="-608"/>
	<trip id="304" depart="300" from="-3847" to="-1526"/>
	<trip id="305" depart="300" from="2166" to="1033"/>
	<trip id="306" depart="300" from="-1431" to="2300"/>
	<trip id="307" depart="302" from="-2961" to="-1535"/>
	<trip id="308" depart="302" from="-1404" to="361"/>
	<trip id="309" depart="303" from="505" to="-505"/>
	<trip id="310" depart="305" from="-2201" to="-1771"/>
	<trip id="311" depart="305" from="2201" to="2732"/>
	<trip id="312" depart="305" from="1535" to="-2979"/>
	<trip id="313" depart="309" from="-348" to="381"/>
	<trip id="314" depart="311" from="-608" to="618"/>
	<trip id="315" depart="311" from="-3849" to="-383"/>
	<trip id="316" depart="312" from="-1883" to="3159"/>
	<trip id="317" depart="312" from="2502" to="2110"/>
	<trip id="318" depart="313" from="-601" to="-577"/>
	<trip id="319" depart="313" from="-119" to="-11"/>
	<trip id="320" depart="314" from="639" to="-2110"/>
	<trip id="321" depart="314" from="-2502" to="3439"/>
	<trip id="322" depart="315" from="684" to="-381"/>
	<trip id="323" depart="316" from="1357" to="3122"/>
	<trip id="324" depart="318" from="1523" to="2453"/>
	<trip id="325" depart="319" from="-867" to="4527"/>
	<trip id="326" depart="320" from="-1797" to="-585"/>
	<trip id="327" depart="320" from="319" to="-840"/>
	<trip id="328" depart="320" from="-1011" to="579"/>
	<trip id="329" depart="324" from="-2425" to="1882"/>
	<trip id="330" depart="324" from="-642" to="-338"/>
	<trip id="331" depart="325" from="-3162" to="-365"/>
	<trip id="332" depart="326" from="-1357" to="880"/>
	<trip id="333" depart="326" from="-349" to="-3162"/>
	<trip id="334" depart="327" from="1441" to="-326"/>
	<trip id="335" depart="327" from="-1895" to="-3739"/>
	<trip id="336" depart="328" from="1057" to="-1029"/>
	<trip id="337" depart="328" from="-3885" to="1027"/>
	<trip id="338" depart="329" from="3497" to="3252"/>
	<trip id="339" depart="333" from="-4681" to="-1425"/>
	<trip id="340" depart="334" from="3162" to="3252"/>
	<trip id="341" depart="336" from="116" to="2607"/>
	<trip id="342" depart="336" from="-2903" to="-3897"/>
	<trip id="343" depart="337" from="336" to="4256"/>
	<trip id="344" depart="338" from="-3137" to="-4539"/>
	<trip id="345" depart="338" from="-2289" to="-1919"/>
	<trip id="346" depart="339" from="3799" to="-9"/>
	<trip id="347" depart="341" from="-2171" to="-3734"/>
	<trip id="348" depart="342" from="517" to="1526"/>
	<trip id="349" depart="344" from="-3611" to="2732"/>
	<trip id="350" depart="344" from="2166" to="1891"/>
	<trip id="351" depart="345" from="2714" to="119"/>
	<trip id="352" depart="346" from="614" to="-3773"/>
	<trip id="353" depart="346" from="-1499" to="3779"/>
	<trip id="354" depart="347" from="-3740" to="-674"/>
	<trip id="355" depart="348" from="1005" to="-13"/>
	<trip id="356" depart="348" from="1029" to="3837"/>
	<trip id="357" depart="350" from="-2206" to="-1441"/>
	<trip id="358" depart="350" from="4049" to="-2112"/>
	<trip id="359" depart="350" from="2423" to="1373"/>
	<trip id="360" depart="351" from="3773" to="2477"/>
	<trip id="361" depart="351" from="-2198" to="-614"/>
	<trip id="362" depart="352" from="-3166" to="3897"/>
	<trip id="363" depart="353" from="3639" to="686"/>
	<trip id="364" depart="353" from="-3772" to="4049"/>
	<trip id="365" depart="354" from="2171" to="1429"/>
	<trip id="366" depart="355" from="-348" to="870"/>
	<trip id="367" depart="355" from="-1499" to="618"/>
	<trip id="368" depart="356" from="535" to="-625"/>
	<trip id="369" depart="356" from="2423" to="1775"/>
	<trip id="370" depart="357" from="-4527" to="592"/>
	<trip id="371" depart="359" from="210" to="-383"/>
	<trip id="372" depart="360" from="2185" to="-1950"/>
	<trip id="373" depart="363" from="1798" to="1767"/>
	<trip id="374" depart="365" from="613" to="-4501"/>
	<trip id="375" depart="365" from="1798" to="2188"/>
	<trip id="376" depart="366" from="-2876" to="2494"/>
	<trip id="377" depart="366" from="3328" to="-1769"/>
	<trip id="378" depart="368" from="-11" to="-623"/>
	<trip id="379" depart="370" from="1005" to="1494"/>
	<trip id="380" depart="371" from="-3438" to="2200"/>
	<trip id="381" depart="373" from="4681" to="-2112"/>
	<trip id="382" depart="373" from="1029" to="-2186"/>
	<trip id="383" depart="374" from="2756" to="2449"/>
	<trip id="384" depart="374" from="1942" to="-4681"/>
	<trip id="385" depart="375" from="-344" to="2421"/>
	<trip id="386" depart="376" from="3920" to="3328"/>
	<trip id="387" depart="377" from="2453" to="-870"/>
	<trip id="388" depart="377" from="2289" to="-2486"/>
	<trip id="389" depart="378" from="116" to="-2449"/>
	<trip id="390" depart="379" from="-3719" to="3091"/>
	<trip id="391" depart="379" from="-3907" to="1919"/>
	<trip id="392" depart="380" from="-3122" to="-3800"/>
	<trip id="393" depart="382" from="1773" to="837"/>
	<trip id="394" depart="382" from="-138" to="867"/>
	<trip id="395" depart="382" from="1944" to="-608"/>
	<trip id="396" depart="382" from="1493" to="4539"/>
	<trip id="397" depart="383" from="-1524" to="-837"/>
	<trip id="398" depart="383" from="-1798" to="-867"/>
	<trip id="399" depart="384" from="-612" to="618"/>
	<trip id="400" depart="384" from="-1493" to="2423"/>
	<trip id="401" depart="388" from="-3607" to="-3162"/>
	<trip id="402" depart="389" from="-4050" to="846"/>
	<trip id="403" depart="390" from="25" to="-3"/>
	<trip id="404" depart="393" from="1523" to="356"/>
	<trip id="405" depart="395" from="-138" to="-4681"/>
	<trip id="406" depart="396" from="128" to="-1425"/>
	<trip id="407" depart="397" from="1343" to="-210"/>
	<trip id="408" depart="398" from="-2200" to="618"/>
	<trip id="409" depart="399" from="492" to="-3162"/>
	<trip id="410" depart="399" from="2278" to="3814"/>
	<trip id="411" depart="400" from="-2185" to="-1404"/>
	<trip id="412" depart="401" from="-3437" to="3151"/>
	<trip id="413" depart="401" from="-2766" to="2453"/>
	<trip id="414" depart="402" from="-3435" to="523"/>
	<trip id="415" depart="402" from="-698" to="1345"/>
	<trip id="416" depart="403" from="1323" to="-1783"/>
	<trip id="417" depart="403" from="-2732" to="-126"/>
	<trip id="418" depart="405" from="-882" to="-2158"/>
	<trip id="419" depart="406" from="2714" to="-2206"/>
	<trip id="420" depart="406" from="870" to="3439"/>
	<trip id="421" depart="407" from="4467" to="-3853"/>
	<trip id="422" depart="407" from="3849" to="618"/>
	<trip id="423" depart="408" from="-1391" to="1523"/>
	<trip id="424" depart="410" from="-2185" to="-625"/>
	<trip id="425" depart="411" from="3825" to="3252"/>
	<trip id="426" depart="412" from="-3437" to="379"/>
	<trip id="427" depart="413" from="-3611" to="2110"/>
	<trip id="428" depart="414" from="2724" to="2183"/>
	<trip id="429" depart="414" from="-3719" to="-1427"/>
	<trip id="430" depart="415" from="1941" to="-621"/>
	<trip id="431" depart="416" from="-2961" to="3837"/>
	<trip id="432" depart="417" from="3769" to="1201"/>
	<trip id="433" depart="417" from="-1359" to="-64"/>
	<trip id="434" depart="418" from="-3119" to="-2895"/>
	<trip id="435" depart="418" from="-1767" to="-3439"/>
	<trip id="436" depart="419" from="-4255" to="-1357"/>
	<trip id="437" depart="420" from="-1199" to="3151"/>
	<trip id="438" depart="420" from="-2291" to="-642"/>
	<trip id="439" depart="421" from="612" to="19"/>
	<trip id="440" depart="425" from="-2291" to="-1771"/>
	<trip id="441" depart="426" from="642" to="-1425"/>
	<trip id="442" depart="426" from="-1441" to="2128"/>
	<trip id="443" depart="428" from="-3825" to="840"/>
	<trip id="444" depart="428" from="-2289" to="-4031"/>
	<trip id="445" depart="428" from="210" to="-601"/>
	<trip id="446" depart="431" from="2766" to="2979"/>
	<trip id="447" depart="436" from="-3122" to="138"/>
	<trip id="448" depart="437" from="-3769" to="848"/>
	<trip id="449" depart="438" from="3439" to="1373"/>
	<trip id="450" depart="442" from="-116" to="-2453"/>
	<trip id="451" depart="443" from="-1494" to="-1950"/>
	<trip id="452" depart="444" from="1935" to="-2963"/>
	<trip id="453" depart="444" from="-592" to="-696"/>
	<trip id="454" depart="445" from="-125" to="1431"/>
	<trip id="455" depart="445" from="-505" to="-1427"/>
	<trip id="456" depart="445" from="-618" to="-679"/>
	<trip id="457" depart="447" from="3764" to="-1388"/>
	<trip id="458" depart="448" from="-1798" to="-612"/>
	<trip id="459" depart="449" from="1773" to="-1396"/>
	<trip id="460" depart="449" from="3787" to="1359"/>
	<trip id="461" depart="449" from="-2202" to="344"/>
	<trip id="462" depart="451" from="-1011" to="-3742"/>
	<trip id="463" depart="452" from="3603" to="-837"/>
	<trip id="464" depart="452" from="-496" to="2112"/>
	<trip id="465" depart="452" from="-1950" to="4474"/>
	<trip id="466" depart="452" from="1767" to="-880"/>
	<trip id="467" depart="452" from="-4527" to="2449"/>
	<trip id="468" depart="453" from="-11" to="-1882"/>
	<trip id="469" depart="454" from="332" to="1429"/>
	<trip id="470" depart="455" from="-2425" to="-3252"/>
	<trip id="471" depart="455" from="-3883" to="-1501"/>
	<trip id="472" depart="457" from="1523" to="-517"/>
	<trip id="473" depart="458" from="2206" to="-3883"/>
	<trip id="474" depart="459" from="-1431" to="-696"/>
	<trip id="475" depart="461" from="11" to="-1493"/>
	<trip id="476" depart="462" from="-1391" to="-2732"/>
	<trip id="477" depart="463" from="2963" to="-2893"/>
	<trip id="478" depart="464" from="381" to="585"/>
	<trip id="479" depart="465" from="-639" to="2171"/>
	<trip id="480" depart="465" from="-2006" to="-1345"/>
	<trip id="481" depart="465" from="126" to="-1533"/>
	<trip id="482" depart="469" from="-4501" to="2895"/>
	<trip id="483" depart="469" from="-381" to="-2206"/>
	<trip id="484" depart="470" from="3166" to="642"/>
	<trip id="485" depart="471" from="-2112" to="-3801"/>
	<trip id="486" depart="474" from="381" to="642"/>
	<trip id="487" depart="476" from="2903" to="1029"/>
	<trip id="488" depart="476" from="-1425" to="-2278"/>
	<trip id="489" depart="478" from="2876" to="-3907"/>
	<trip id="490" depart="478" from="3095" to="332"/>
	<trip id="491" depart="479" from="1895" to="-3800"/>
	<trip id="492" depart="483" from="-728" to="2300"/>
	<trip id="493" depart="484" from="-15" to="1483"/>
	<trip id="494" depart="485" from="1429" to="2412"/>
	<trip id="495" depart="486" from="2158" to="4027"/>
	<trip id="496" depart="487" from="618" to="-4027"/>
	<trip id="497" depart="487" from="-1941" to="2423"/>
	<trip id="498" depart="487" from="1431" to="-1883"/>
	<trip id="499" depart="492" from="3769" to="4257"/>
	<trip id="500" depart="492" from="-1941" to="2766"/>
	<trip id="501" depart="492" from="-3907" to="-2120"/>
	<trip id="502" depart="493" from="-3847" to="612"/>
	<trip id="503" depart="493" from="1483" to="579"/>
	<trip id="504" depart="493" from="-38" to="-597"/>
	<trip id="505" depart="493" from="1517" to="3603"/>
	<trip id="506" depart="493" from="-3439" to="1775"/>
	<trip id="507" depart="495" from="116" to="-1388"/>
	<trip id="508" depart="496" from="-492" to="-837"/>
	<trip id="509" depart="498" from="505" to="3761"/>
	<trip id="510" depart="499" from="1499" to="1919"/>
	<trip id="511" depart="499" from="2425" to="-2166"/>
	<trip id="512" depart="499" from="1501" to="3853"/>
	<trip id="513" depart="501" from="-1093" to="-3437"/>
	<trip id="514" depart="502" from="-2128" to="-2969"/>
	<trip id="515" depart="504" from="-730" to="-3849"/>
	<trip id="516" depart="504" from="1919" to="3814"/>
	<trip id="517" depart="506" from="2173" to="-2494"/>
	<trip id="518" depart="506" from="-2447" to="-1882"/>
	<trip id="519" depart="507" from="-2607" to="2876"/>
	<trip id="520" depart="508" from="-1944" to="1493"/>
	<trip id="521" depart="509" from="4258" to="-2961"/>
	<trip id="522" depart="509" from="-1797" to="-1388"/>
	<trip id="523" depart="510" from="523" to="3801"/>
	<trip id="524" depart="511" from="-3145" to="-3121"/>
	<trip id="525" depart="511" from="-728" to="-3145"/>
	<trip id="526" depart="514" from="-625" to="1769"/>
	<trip id="527" depart="514" from="2423" to="-1535"/>
	<trip id="528" depart="516" from="1774" to="-3769"/>
	<trip id="529" depart="517" from="-3437" to="2120"/>
	<trip id="530" depart="519" from="-4256" to="3095"/>
	<trip id="531" depart="520" from="732" to="-2756"/>
	<trip id="532" depart="521" from="-2198" to="-3137"/>
	<trip id="533" depart="523" from="3825" to="-2112"/>
	<trip id="534" depart="524" from="-2502" to="-138"/>
	<trip id="535" depart="525" from="2112" to="-9"/>
	<trip id="536" depart="526" from="1950" to="517"/>
	<trip id="537" depart="526" from="-1950" to="138"/>
	<trip id="538" depart="526" from="2120" to="3151"/>
	<trip id="539" depart="526" from="330" to="-2173"/>
	<trip id="540" depart="527" from="2979" to="-3853"/>
	<trip id="541" depart="527" from="-3849" to="2412"/>
	<trip id="542" depart="527" from="-592" to="-319"/>
	<trip id="543" depart="528" from="2171" to="-1441"/>
	<trip id="544" depart="528" from="3639" to="1944"/>
	<trip id="545" depart="529" from="123" to="3853"/>
	<trip id="546" depart="534" from="-2872" to="-1797"/>
	<trip id="547" depart="535" from="116" to="2194"/>
	<trip id="548" depart="536" from="1391" to="1342"/>
	<trip id="549" depart="537" from="1767" to="2200"/>
	<trip id="550" depart="538" from="1033" to="-3814"/>
	<trip id="551" depart="539" from="-2494" to="-2873"/>
	<trip id="552" depart="539" from="1343" to="-2732"/>
	<trip id="553" depart="539" from="4050" to="639"/>
	<trip id="554" depart="540" from="-119" to="4469"/>
	<trip id="555" depart="540" from="-3151" to="1342"/>
	<trip id="556" depart="540" from="-319" to="-379"/>
	<trip id="557" depart="540" from="570" to="2185"/>
	<trip id="558" depart="543" from="-2502" to="-3328"/>
	<trip id="559" depart="544" from="3897" to="3773"/>
	<trip id="560" depart="545" from="-3761" to="332"/>
	<trip id="561" depart="545" from="-3328" to="1201"/>
	<trip id="562" depart="546" from="3435" to="3497"/>
	<trip id="563" depart="548" from="-1464" to="-535"/>