<?xml version="1.0" encoding="UTF-8"?>

<!-- generated on 2023-04-28 15:18:56 by Eclipse SUMO marouter Version 1.16.0
<configuration xmlns:xsi="http://www.w3.org/2001/XMLSchema-instance" xsi:noNamespaceSchemaLocation="http://sumo.dlr.de/xsd/marouterConfiguration.xsd">

    <input>
        <net-file value="./configurations/maps/Random_English.net.xml"/>
        <route-files value="./configurations/Rounds/Random_English.net.xml-test_R-0/Trips_File.rou.xml"/>
    </input>

    <output>
        <output-file value="./028/Trips_File_028.rou.xml"/>
    </output>

    <processing>
        <max-iterations value="29"/>
    </processing>

</configuration>
-->

<routes xmlns:xsi="http://www.w3.org/2001/XMLSchema-instance" xsi:noNamespaceSchemaLocation="http://sumo.dlr.de/xsd/routes_file.xsd">
    <vehicle id="2" depart="0.00" type="DEFAULT_VEHTYPE" fromTaz="-533" toTaz="2421" departLane="free" departSpeed="max">
        <routeDistribution>
            <route cost="78.71" probability="1.00000000" edges="-533 535 601 -613 614 2149 2421"/>
        </routeDistribution>
    </vehicle>
    <vehicle id="3" depart="0.00" type="DEFAULT_VEHTYPE" fromTaz="-639" toTaz="3095" departLane="free" departSpeed="max">
        <routeDistribution>
            <route cost="136.50" probability="1.00000000" edges="-639 639 876 -1535 -1533 -1524 1526 1883 1942 1950 2194 -2449 2453 3095"/>
        </routeDistribution>
    </vehicle>
    <vehicle id="5" depart="1.00" type="DEFAULT_VEHTYPE" fromTaz="-4257" toTaz="-349" departLane="free" departSpeed="max">
        <routeDistribution>
            <route cost="64.51" probability="1.00000000" edges="-4257 -3611 -1464 -1388 -533 -365 -349"/>
        </routeDistribution>
    </vehicle>
    <vehicle id="4" depart="1.00" type="DEFAULT_VEHTYPE" fromTaz="2300" toTaz="-679" departLane="free" departSpeed="max">
        <routeDistribution>
            <route cost="131.17" probability="1.00000000" edges="2300 -2300 -1057 -589 -325 -117 -15 -3 11 696 -679"/>
        </routeDistribution>
    </vehicle>
    <vehicle id="7" depart="4.00" type="DEFAULT_VEHTYPE" fromTaz="-1201" toTaz="-3145" departLane="free" departSpeed="max">
        <routeDistribution>
            <route cost="189.46" probability="1.00000000" edges="-1201 -1027 -698 -11 3 15 117 319 639 876 -1535 -1533 -1524 1526 1891 2112 3145 -3145"/>
        </routeDistribution>
    </vehicle>
    <vehicle id="6" depart="4.00" type="DEFAULT_VEHTYPE" fromTaz="-2291" toTaz="330" departLane="free" departSpeed="max">
        <routeDistribution>
            <route cost="92.27" probability="1.00000000" edges="-2291 -684 -597 -505 517 -588 -325 -117 119 330"/>
        </routeDistribution>
    </vehicle>
    <vehicle id="8" depart="4.00" type="DEFAULT_VEHTYPE" fromTaz="4469" toTaz="-618" departLane="free" departSpeed="max">
        <routeDistribution>
            <route cost="90.75" probability="2.00000000" edges="4469 -4469 -3742 -2895 -2423 -2158 -867 -618"/>
        </routeDistribution>
    </vehicle>
    <vehicle id="9" depart="5.00" type="DEFAULT_VEHTYPE" fromTaz="379" toTaz="3761" departLane="free" departSpeed="max">
        <routeDistribution>
            <route cost="128.45" probability="1.00000000" edges="379 -379 -349 585 -613 618 867 2158 2423 2961 3761"/>
        </routeDistribution>
    </vehicle>
    <vehicle id="10" depart="7.00" type="DEFAULT_VEHTYPE" fromTaz="-1941" toTaz="7" departLane="free" departSpeed="max">
        <routeDistribution>
            <route cost="106.73" probability="1.00000000" edges="-1941 1941 2186 2200 -330 -119 -15 -3 7"/>
        </routeDistribution>
    </vehicle>
    <vehicle id="11" depart="9.00" type="DEFAULT_VEHTYPE" fromTaz="-621" toTaz="732" departLane="free" departSpeed="max">
        <routeDistribution>
            <route cost="24.83" probability="1.00000000" edges="-621 625 732"/>
        </routeDistribution>
    </vehicle>
    <vehicle id="12" depart="9.00" type="DEFAULT_VEHTYPE" fromTaz="338" toTaz="-876" departLane="free" departSpeed="max">
        <routeDistribution>
            <route cost="73.64" probability="1.00000000" edges="338 523 -1415 -1357 1494 1535 -876"/>
        </routeDistribution>
    </vehicle>
    <vehicle id="13" depart="10.00" type="DEFAULT_VEHTYPE" fromTaz="-2756" toTaz="2128" departLane="free" departSpeed="max">
        <routeDistribution>
            <route cost="86.13" probability="1.00000000" edges="-2756 2756 3439 2166 2168 -2128 2128"/>
        </routeDistribution>
    </vehicle>
    <vehicle id="14" depart="10.00" type="DEFAULT_VEHTYPE" fromTaz="3739" toTaz="-1431" departLane="free" departSpeed="max">
        <routeDistribution>
            <route cost="194.99" probability="1.00000000" edges="3739 -3737 -1404 -1345 -1342 -1093 -1029 -728 -11 3 15 117 319 639 876 -1535 -1533 -1524 -1431"/>
        </routeDistribution>
    </vehicle>
    <vehicle id="15" depart="11.00" type="DEFAULT_VEHTYPE" fromTaz="-336" toTaz="-3095" departLane="free" departSpeed="max">
        <routeDistribution>
            <route cost="175.21" probability="1.00000000" edges="-336 338 523 -1415 -1357 1494 -1533 -1524 1526 1883 1942 1950 2194 -2449 2453 3095 -3095"/>
        </routeDistribution>
    </vehicle>
    <vehicle id="16" depart="12.00" type="DEFAULT_VEHTYPE" fromTaz="1494" toTaz="639" departLane="free" departSpeed="max">
        <routeDistribution>
            <route cost="54.54" probability="1.00000000" edges="1494 1535 -876 -639 639"/>
        </routeDistribution>
    </vehicle>
    <vehicle id="19" depart="13.00" type="DEFAULT_VEHTYPE" fromTaz="-1029" toTaz="1323" departLane="free" departSpeed="max">
        <routeDistribution>
            <route cost="114.68" probability="1.00000000" edges="-1029 -728 -11 3 15 117 319 639 882 1323"/>
        </routeDistribution>
    </vehicle>
    <vehicle id="17" depart="13.00" type="DEFAULT_VEHTYPE" fromTaz="1798" toTaz="-2447" departLane="free" departSpeed="max">
        <routeDistribution>
            <route cost="82.52" probability="1.00000000" edges="1798 -1798 -1523 -1429 1427 1441 2278 -2447"/>
        </routeDistribution>
    </vehicle>
    <vehicle id="18" depart="13.00" type="DEFAULT_VEHTYPE" fromTaz="3603" toTaz="-577" departLane="free" departSpeed="max">
        <routeDistribution>
            <route cost="97.97" probability="1.00000000" edges="3603 -4258 4257 -3769 -2979 -2439 -618 614 -608 -577"/>
        </routeDistribution>
    </vehicle>
    <vehicle id="20" depart="17.00" type="DEFAULT_VEHTYPE" fromTaz="-2209" toTaz="-1891" departLane="free" departSpeed="max">
        <routeDistribution>
            <route cost="32.36" probability="1.00000000" edges="-2209 -2120 -1891"/>
        </routeDistribution>
    </vehicle>
    <vehicle id="21" depart="17.00" type="DEFAULT_VEHTYPE" fromTaz="4257" toTaz="2289" departLane="free" departSpeed="max">
        <routeDistribution>
            <route cost="135.49" probability="1.00000000" edges="4257 -4257 -3611 -1464 -1388 -533 -365 -344 -125 123 338 505 597 684 2289"/>
        </routeDistribution>
    </vehicle>
    <vehicle id="22" depart="18.00" type="DEFAULT_VEHTYPE" fromTaz="504" toTaz="-848" departLane="free" departSpeed="max">
        <routeDistribution>
            <route cost="111.61" probability="1.00000000" edges="504 -505 517 -588 -325 -117 119 332 592 650 848 -848"/>
        </routeDistribution>
    </vehicle>
    <vehicle id="23" depart="20.00" type="DEFAULT_VEHTYPE" fromTaz="588" toTaz="2724" departLane="free" departSpeed="max">
        <routeDistribution>
            <route cost="107.65" probability="1.00000000" edges="588 -517 517 -588 -325 -117 119 332 592 650 2724"/>
        </routeDistribution>
    </vehicle>
    <vehicle id="24" depart="21.00" type="DEFAULT_VEHTYPE" fromTaz="1429" toTaz="-4049" departLane="free" departSpeed="max">
        <routeDistribution>
            <route cost="132.36" probability="1.00000000" edges="1429 -1429 1427 1441 2278 -2447 -1493 1483 -3439 -3435 3437 4049 -4049"/>
        </routeDistribution>
    </vehicle>
    <vehicle id="26" depart="21.00" type="DEFAULT_VEHTYPE" fromTaz="2289" toTaz="-332" departLane="free" departSpeed="max">
        <routeDistribution>
            <route cost="112.52" probability="1.00000000" edges="2289 2766 3497 4050 -589 -325 -117 119 332 592 -592 -332"/>
        </routeDistribution>
    </vehicle>
    <vehicle id="25" depart="21.00" type="DEFAULT_VEHTYPE" fromTaz="4256" toTaz="-2183" departLane="free" departSpeed="max">
        <routeDistribution>
            <route cost="218.03" probability="1.00000000" edges="4256 -3603 -1464 -1388 -533 -365 -344 -125 121 326 -313 -117 119 330 -2200 -2186 2185 2482 -3121 -2183"/>
        </routeDistribution>
    </vehicle>
    <vehicle id="27" depart="22.00" type="DEFAULT_VEHTYPE" fromTaz="-2881" toTaz="2291" departLane="free" departSpeed="max">
        <routeDistribution>
            <route cost="153.95" probability="0.62068966" edges="-2881 -2421 -2149 -614 613 -585 349 -344 -125 123 338 505 597 684 2291"/>
            <route cost="153.98" probability="0.24137931" edges="-2881 -2421 -2149 -614 -579 -383 -128 126 -125 123 338 505 597 684 2291"/>
            <route cost="153.98" probability="0.13793103" edges="-2881 -2421 -2149 -614 -579 -383 -128 -25 19 123 338 505 597 684 2291"/>
        </routeDistribution>
    </vehicle>
    <vehicle id="28" depart="24.00" type="DEFAULT_VEHTYPE" fromTaz="-621" toTaz="1388" departLane="free" departSpeed="max">
        <routeDistribution>
            <route cost="105.05" probability="1.00000000" edges="-621 -319 313 -326 -121 125 344 365 533 1388"/>
        </routeDistribution>
    </vehicle>
    <vehicle id="29" depart="26.00" type="DEFAULT_VEHTYPE" fromTaz="-1345" toTaz="1774" departLane="free" departSpeed="max">
        <routeDistribution>
            <route cost="159.44" probability="1.00000000" edges="-1345 -1342 -1093 -1029 -728 -11 3 15 119 330 -2200 -1882 -1774 1774"/>
        </routeDistribution>
    </vehicle>
    <vehicle id="31" depart="29.00" type="DEFAULT_VEHTYPE" fromTaz="1011" toTaz="-210" departLane="free" departSpeed="max">
        <routeDistribution>
            <route cost="80.72" probability="1.00000000" edges="1011 -1011 -612 -577 -383 381 -210"/>
        </routeDistribution>
    </vehicle>
    <vehicle id="30" depart="29.00" type="DEFAULT_VEHTYPE" fromTaz="1027" toTaz="1950" departLane="free" departSpeed="max">
        <routeDistribution>
            <route cost="161.24" probability="1.00000000" edges="1027 1201 3773 -3252 -848 -650 674 -837 -2200 -1882 -1523 1517 1797 1950"/>
        </routeDistribution>
    </vehicle>
    <vehicle id="32" depart="30.00" type="DEFAULT_VEHTYPE" fromTaz="-505" toTaz="1005" departLane="free" departSpeed="max">
        <routeDistribution>
            <route cost="99.44" probability="1.00000000" edges="-505 -338 -123 -19 -9 11 728 1029 -1005 1005"/>
        </routeDistribution>
    </vehicle>
    <vehicle id="34" depart="31.00" type="DEFAULT_VEHTYPE" fromTaz="-1057" toTaz="840" departLane="free" departSpeed="max">
        <routeDistribution>
            <route cost="102.29" probability="1.00000000" edges="-1057 -589 -325 -117 119 332 592 642 840"/>
        </routeDistribution>
    </vehicle>
    <vehicle id="33" depart="31.00" type="DEFAULT_VEHTYPE" fromTaz="15" toTaz="-4257" departLane="free" departSpeed="max">
        <routeDistribution>
            <route cost="127.52" probability="1.00000000" edges="15 117 313 -326 -121 125 344 365 533 1388 1464 3611 4257 -4257"/>
        </routeDistribution>
    </vehicle>
    <vehicle id="35" depart="34.00" type="DEFAULT_VEHTYPE" fromTaz="-2453" toTaz="-650" departLane="free" departSpeed="max">
        <routeDistribution>
            <route cost="140.96" probability="1.00000000" edges="-2453 -2173 -1935 -1775 1774 1882 2200 837 -674 650 -650"/>
        </routeDistribution>
    </vehicle>
    <vehicle id="36" depart="36.00" type="DEFAULT_VEHTYPE" fromTaz="-4255" toTaz="-9" departLane="free" departSpeed="max">
        <routeDistribution>
            <route cost="111.31" probability="1.00000000" edges="-4255 -3607 -1464 -1388 -533 -365 -349 -210 -25 -9"/>
        </routeDistribution>
    </vehicle>
    <vehicle id="37" depart="38.00" type="DEFAULT_VEHTYPE" fromTaz="-1005" toTaz="-1494" departLane="free" departSpeed="max">
        <routeDistribution>
            <route cost="132.14" probability="1.00000000" edges="-1005 1005 -1029 -728 -11 3 15 117 319 639 876 -1535 -1494"/>
        </routeDistribution>
    </vehicle>
    <vehicle id="38" depart="38.00" type="DEFAULT_VEHTYPE" fromTaz="25" toTaz="-4527" departLane="free" departSpeed="max">
        <routeDistribution>
            <route cost="127.13" probability="1.00000000" edges="25 128 383 579 618 867 2158 2423 2961 4527 -4527"/>
        </routeDistribution>
    </vehicle>
    <vehicle id="40" depart="39.00" type="DEFAULT_VEHTYPE" fromTaz="-3155" toTaz="1523" departLane="free" departSpeed="max">
        <routeDistribution>
            <route cost="125.16" probability="1.00000000" edges="-3155 -2714 -846 -642 674 -837 -2200 -1882 -1523 1523"/>
        </routeDistribution>
    </vehicle>
    <vehicle id="39" depart="39.00" type="DEFAULT_VEHTYPE" fromTaz="-686" toTaz="1767" departLane="free" departSpeed="max">
        <routeDistribution>
            <route cost="88.45" probability="1.00000000" edges="-686 684 2289 2756 3439 -1483 1493 1767"/>
        </routeDistribution>
    </vehicle>
    <vehicle id="41" depart="40.00" type="DEFAULT_VEHTYPE" fromTaz="3611" toTaz="-2477" departLane="free" departSpeed="max">
        <routeDistribution>
            <route cost="241.72" probability="1.00000000" edges="3611 -3611 -1464 -1388 -533 -365 -344 -125 123 338 523 -1415 -1357 1494 -1533 -1524 1526 1883 1942 1950 2194 -2449 2453 3093 -2477"/>
        </routeDistribution>
    </vehicle>
    <vehicle id="42" depart="41.00" type="DEFAULT_VEHTYPE" fromTaz="4255" toTaz="-1415" departLane="free" departSpeed="max">
        <routeDistribution>
            <route cost="129.06" probability="1.00000000" edges="4255 -3720 -2876 -569 -365 -344 -125 123 338 523 -1415"/>
        </routeDistribution>
    </vehicle>
    <vehicle id="44" depart="42.00" type="DEFAULT_VEHTYPE" fromTaz="2209" toTaz="-3740" departLane="free" departSpeed="max">
        <routeDistribution>
            <route cost="255.21" probability="1.00000000" edges="2209 -2209 -2120 -1891 -1526 1524 1533 1535 -876 -639 -319 -38 -17 25 128 383 579 618 867 2158 2423 2961 -3740"/>
        </routeDistribution>
    </vehicle>
    <vehicle id="43" depart="42.00" type="DEFAULT_VEHTYPE" fromTaz="612" toTaz="-2188" departLane="free" departSpeed="max">
        <routeDistribution>
            <route cost="179.93" probability="1.00000000" edges="612 1005 -1029 -728 -11 3 15 119 330 -2200 -1882 -1523 1517 1797 2006 -2188"/>
        </routeDistribution>
    </vehicle>
    <vehicle id="45" depart="42.00" type="DEFAULT_VEHTYPE" fromTaz="639" toTaz="880" departLane="free" departSpeed="max">
        <routeDistribution>
            <route cost="27.64" probability="1.00000000" edges="639 880"/>
        </routeDistribution>
    </vehicle>
    <vehicle id="47" depart="46.00" type="DEFAULT_VEHTYPE" fromTaz="-1431" toTaz="313" departLane="free" departSpeed="max">
        <routeDistribution>
            <route cost="73.60" probability="1.00000000" edges="-1431 1447 1535 -876 -639 -319 313"/>
        </routeDistribution>
    </vehicle>
    <vehicle id="46" depart="46.00" type="DEFAULT_VEHTYPE" fromTaz="-3131" toTaz="1919" departLane="free" departSpeed="max">
        <routeDistribution>
            <route cost="235.77" probability="0.20689655" edges="-3131 -2502 -2206 2202 -2168 -1930 1767 1357 1415 -523 -338 -123 125 -126 128 383 579 618 867 1919"/>
            <route cost="235.76" probability="0.10344828" edges="-3131 -2502 -2206 2202 -2168 -1930 1767 1357 1415 -523 -338 -123 -19 25 128 383 579 618 867 1919"/>
            <route cost="235.75" probability="0.68965517" edges="-3131 -2502 -2206 2202 -2168 -1930 1767 1357 1415 -523 -338 -123 125 344 -349 585 -613 618 867 1919"/>
        </routeDistribution>
    </vehicle>
    <vehicle id="48" depart="50.00" type="DEFAULT_VEHTYPE" fromTaz="-330" toTaz="3801" departLane="free" departSpeed="max">
        <routeDistribution>
            <route cost="123.90" probability="2.00000000" edges="-330 330 -2200 -2186 2185 2482 -3779 -3091 3801"/>
        </routeDistribution>
    </vehicle>
    <vehicle id="49" depart="51.00" type="DEFAULT_VEHTYPE" fromTaz="-3162" toTaz="3166" departLane="free" departSpeed="max">
        <routeDistribution>
            <route cost="21.26" probability="1.00000000" edges="-3162 3166"/>
        </routeDistribution>
    </vehicle>
    <vehicle id="50" depart="52.00" type="DEFAULT_VEHTYPE" fromTaz="1033" toTaz="3252" departLane="free" departSpeed="max">
        <routeDistribution>
            <route cost="88.08" probability="1.00000000" edges="1033 -1033 -734 732 837 -674 650 848 3252"/>
        </routeDistribution>
    </vehicle>
    <vehicle id="51" depart="52.00" type="DEFAULT_VEHTYPE" fromTaz="1941" toTaz="2185" departLane="free" departSpeed="max">
        <routeDistribution>
            <route cost="22.49" probability="2.00000000" edges="1941 2185"/>
        </routeDistribution>
    </vehicle>
    <vehicle id="52" depart="53.00" type="DEFAULT_VEHTYPE" fromTaz="-383" toTaz="2183" departLane="free" departSpeed="max">
        <routeDistribution>
            <route cost="161.76" probability="1.00000000" edges="-383 -128 -25 17 -13 15 119 330 -2200 -1882 -1774 1775 1935 2183"/>
        </routeDistribution>
    </vehicle>
    <vehicle id="53" depart="54.00" type="DEFAULT_VEHTYPE" fromTaz="3438" toTaz="3772" departLane="free" departSpeed="max">
        <routeDistribution>
            <route cost="130.34" probability="1.00000000" edges="3438 3497 4050 -589 -325 -117 119 332 592 650 848 3252 -3773 3772"/>
        </routeDistribution>
    </vehicle>
    <vehicle id="54" depart="55.00" type="DEFAULT_VEHTYPE" fromTaz="-3119" toTaz="-1388" departLane="free" departSpeed="max">
        <routeDistribution>
            <route cost="220.89" probability="1.00000000" edges="-3119 -2453 2449 -2194 -1950 -1942 -1883 -1526 1524 1533 -1494 1357 1415 -523 -338 -123 125 344 365 533 1388 -1388"/>
        </routeDistribution>
    </vehicle>
    <vehicle id="55" depart="58.00" type="DEFAULT_VEHTYPE" fromTaz="-2425" toTaz="-1891" departLane="free" departSpeed="max">
        <routeDistribution>
            <route cost="223.59" probability="1.00000000" edges="-2425 -2158 -867 -618 -579 -383 -128 -25 17 38 319 639 876 -1535 -1533 -1524 1526 1891 -1891"/>
        </routeDistribution>
    </vehicle>
    <vehicle id="57" depart="58.00" type="DEFAULT_VEHTYPE" fromTaz="-2961" toTaz="-2112" departLane="free" departSpeed="max">
        <routeDistribution>
            <route cost="240.21" probability="1.00000000" edges="-2961 -2423 -2158 -867 -618 -579 -383 -128 -25 17 38 319 639 876 -1535 -1533 -1524 1526 1891 2112 -2112"/>
        </routeDistribution>
    </vehicle>
    <vehicle id="56" depart="58.00" type="DEFAULT_VEHTYPE" fromTaz="-313" toTaz="326" departLane="free" departSpeed="max">
        <routeDistribution>
            <route cost="35.11" probability="1.00000000" edges="-313 313 -326 326"/>
        </routeDistribution>
    </vehicle>
    <vehicle id="58" depart="58.00" type="DEFAULT_VEHTYPE" fromTaz="1201" toTaz="-379" departLane="free" departSpeed="max">
        <routeDistribution>
            <route cost="113.66" probability="1.00000000" edges="1201 -1201 -1027 -698 -11 9 19 125 -570 -379"/>
        </routeDistribution>
    </vehicle>
    <vehicle id="59" depart="59.00" type="DEFAULT_VEHTYPE" fromTaz="3847" toTaz="2961" departLane="free" departSpeed="max">
        <routeDistribution>
            <route cost="285.26" probability="0.20689655" edges="3847 -3847 -3131 -2502 -2206 2202 -2168 -1930 1767 1357 1415 -523 -338 -123 125 -126 128 383 579 618 867 2158 2423 2961"/>
            <route cost="285.25" probability="0.10344828" edges="3847 -3847 -3131 -2502 -2206 2202 -2168 -1930 1767 1357 1415 -523 -338 -123 -19 25 128 383 579 618 867 2158 2423 2961"/>
            <route cost="285.24" probability="0.68965517" edges="3847 -3847 -3131 -2502 -2206 2202 -2168 -1930 1767 1357 1415 -523 -338 -123 125 344 -349 585 -613 618 867 2158 2423 2961"/>
        </routeDistribution>
    </vehicle>
    <vehicle id="60" depart="61.00" type="DEFAULT_VEHTYPE" fromTaz="2502" toTaz="3897" departLane="free" departSpeed="max">
        <routeDistribution>
            <route cost="79.16" probability="1.00000000" edges="2502 -2502 -2206 2201 3145 3897"/>
        </routeDistribution>
    </vehicle>
    <vehicle id="61" depart="63.00" type="DEFAULT_VEHTYPE" fromTaz="4256" toTaz="2876" departLane="free" departSpeed="max">
        <routeDistribution>
            <route cost="48.55" probability="1.00000000" edges="4256 -3603 -1464 -1391 2876"/>
        </routeDistribution>
    </vehicle>
    <vehicle id="62" depart="64.00" type="DEFAULT_VEHTYPE" fromTaz="-330" toTaz="2173" departLane="free" departSpeed="max">
        <routeDistribution>
            <route cost="114.45" probability="1.00000000" edges="-330 330 -2200 -1882 -1774 1775 1935 2173"/>
        </routeDistribution>
    </vehicle>
    <vehicle id="63" depart="65.00" type="DEFAULT_VEHTYPE" fromTaz="-2285" toTaz="326" departLane="free" departSpeed="max">
        <routeDistribution>
            <route cost="70.69" probability="1.00000000" edges="-2285 -837 -330 -119 117 313 -326 326"/>
        </routeDistribution>
    </vehicle>
    <vehicle id="64" depart="66.00" type="DEFAULT_VEHTYPE" fromTaz="639" toTaz="-2961" departLane="free" departSpeed="max">
        <routeDistribution>
            <route cost="180.76" probability="1.00000000" edges="639 -639 -319 -38 -17 25 128 383 579 618 867 2158 2423 2961 -2961"/>
        </routeDistribution>
    </vehicle>
    <vehicle id="65" depart="66.00" type="DEFAULT_VEHTYPE" fromTaz="876" toTaz="-348" departLane="free" departSpeed="max">
        <routeDistribution>
            <route cost="106.64" probability="1.00000000" edges="876 -876 -639 -319 -117 -15 -3 7 356 -348"/>
        </routeDistribution>
    </vehicle>
    <vehicle id="66" depart="67.00" type="DEFAULT_VEHTYPE" fromTaz="-1771" toTaz="-3761" departLane="free" departSpeed="max">
        <routeDistribution>
            <route cost="245.05" probability="1.00000000" edges="-1771 -1499 -1429 -1363 1359 -876 -639 -319 -38 -17 25 128 383 579 618 867 2158 2423 2903 4495 -3761"/>
        </routeDistribution>
    </vehicle>
    <vehicle id="67" depart="68.00" type="DEFAULT_VEHTYPE" fromTaz="-3438" toTaz="-2188" departLane="free" departSpeed="max">
        <routeDistribution>
            <route cost="114.86" probability="1.00000000" edges="-3438 3439 2166 2168 -2128 -1891 1883 1942 2006 -2188"/>
        </routeDistribution>
    </vehicle>
    <vehicle id="68" depart="70.00" type="DEFAULT_VEHTYPE" fromTaz="597" toTaz="2289" departLane="free" departSpeed="max">
        <routeDistribution>
            <route cost="25.68" probability="1.00000000" edges="597 684 2289"/>
        </routeDistribution>
    </vehicle>
    <vehicle id="70" depart="71.00" type="DEFAULT_VEHTYPE" fromTaz="-3497" toTaz="1774" departLane="free" departSpeed="max">
        <routeDistribution>
            <route cost="118.23" probability="0.79310345" edges="-3497 3497 4050 -1415 -1357 1494 -1447 -1427 1429 1501 1774"/>
            <route cost="118.02" probability="0.20689655" edges="-3497 -3438 3439 -1483 1493 2447 -2278 -1441 -1427 1429 1501 1774"/>
        </routeDistribution>
    </vehicle>
    <vehicle id="69" depart="71.00" type="DEFAULT_VEHTYPE" fromTaz="1323" toTaz="2766" departLane="free" departSpeed="max">
        <routeDistribution>
            <route cost="114.26" probability="1.00000000" edges="1323 1373 1441 2278 -2447 -1493 1483 -3439 -2756 2766"/>
        </routeDistribution>
    </vehicle>
    <vehicle id="71" depart="73.00" type="DEFAULT_VEHTYPE" fromTaz="3720" toTaz="-1493" departLane="free" departSpeed="max">
        <routeDistribution>
            <route cost="162.42" probability="1.00000000" edges="3720 -3720 -2876 -569 -365 -344 -125 123 338 523 -1415 -1357 -1767 -1493"/>
        </routeDistribution>
    </vehicle>
    <vehicle id="72" depart="78.00" type="DEFAULT_VEHTYPE" fromTaz="-614" toTaz="1771" departLane="free" departSpeed="max">
        <routeDistribution>
            <route cost="172.18" probability="1.00000000" edges="-614 -579 -383 -128 -25 17 38 319 639 876 -1359 1363 1429 1499 1771"/>
        </routeDistribution>
    </vehicle>
    <vehicle id="73" depart="83.00" type="DEFAULT_VEHTYPE" fromTaz="569" toTaz="1345" departLane="free" departSpeed="max">
        <routeDistribution>
            <route cost="121.48" probability="1.00000000" edges="569 -569 -365 -349 -381 383 577 612 1011 1345"/>
        </routeDistribution>
    </vehicle>
    <vehicle id="76" depart="84.00" type="DEFAULT_VEHTYPE" fromTaz="-496" toTaz="1535" departLane="free" departSpeed="max">
        <routeDistribution>
            <route cost="90.38" probability="1.00000000" edges="-496 -361 -336 338 523 -1415 -1357 1494 1535"/>
        </routeDistribution>
    </vehicle>
    <vehicle id="74" depart="84.00" type="DEFAULT_VEHTYPE" fromTaz="1431" toTaz="1029" departLane="free" departSpeed="max">
        <routeDistribution>
            <route cost="128.54" probability="1.00000000" edges="1431 1524 1533 1535 -876 -639 -319 -117 -15 -3 11 728 1029"/>
        </routeDistribution>
    </vehicle>
    <vehicle id="75" depart="84.00" type="DEFAULT_VEHTYPE" fromTaz="3853" toTaz="9" departLane="free" departSpeed="max">
        <routeDistribution>
            <route cost="198.56" probability="1.00000000" edges="3853 -3853 -3137 -2502 -2206 2202 -2168 -1930 1767 -880 -639 -319 -117 -15 -3 9"/>
        </routeDistribution>
    </vehicle>
    <vehicle id="77" depart="85.00" type="DEFAULT_VEHTYPE" fromTaz="1773" toTaz="570" departLane="free" departSpeed="max">
        <routeDistribution>
            <route cost="142.40" probability="1.00000000" edges="1773 1941 2186 2200 -330 -119 117 313 -326 -121 125 -570 570"/>
        </routeDistribution>
    </vehicle>
    <vehicle id="78" depart="86.00" type="DEFAULT_VEHTYPE" fromTaz="-2979" toTaz="2963" departLane="free" departSpeed="max">
        <routeDistribution>
            <route cost="57.02" probability="1.00000000" edges="-2979 2979 -3764 -2969 2963"/>
        </routeDistribution>
    </vehicle>
    <vehicle id="79" depart="87.00" type="DEFAULT_VEHTYPE" fromTaz="-326" toTaz="-1944" departLane="free" departSpeed="max">
        <routeDistribution>
            <route cost="119.61" probability="1.00000000" edges="-326 326 -313 319 639 876 -1535 -1533 -1524 1526 1895 -1944"/>
        </routeDistribution>
    </vehicle>
    <vehicle id="80" depart="88.00" type="DEFAULT_VEHTYPE" fromTaz="-3773" toTaz="1944" departLane="free" departSpeed="max">
        <routeDistribution>
            <route cost="143.64" probability="1.00000000" edges="-3773 3773 -3252 -848 -650 674 -837 -2200 -1882 -1523 1517 1797 1944"/>
        </routeDistribution>
    </vehicle>
    <vehicle id="81" depart="89.00" type="DEFAULT_VEHTYPE" fromTaz="-3885" toTaz="338" departLane="free" departSpeed="max">
        <routeDistribution>
            <route cost="131.50" probability="1.00000000" edges="-3885 -3145 -2201 2202 -2168 -1930 1767 1357 1415 -523 -338 338"/>
        </routeDistribution>
    </vehicle>
    <vehicle id="82" depart="89.00" type="DEFAULT_VEHTYPE" fromTaz="-642" toTaz="-618" departLane="free" departSpeed="max">
        <routeDistribution>
            <route cost="132.09" probability="1.00000000" edges="-642 -592 -332 -119 -15 13 -17 25 128 383 579 618 -618"/>
        </routeDistribution>
    </vehicle>
    <vehicle id="84" depart="91.00" type="DEFAULT_VEHTYPE" fromTaz="-2732" toTaz="-2166" departLane="free" departSpeed="max">
        <routeDistribution>
            <route cost="64.75" probability="1.00000000" edges="-2732 2756 3439 2166 -2166"/>
        </routeDistribution>
    </vehicle>
    <vehicle id="83" depart="91.00" type="DEFAULT_VEHTYPE" fromTaz="-523" toTaz="3719" departLane="free" departSpeed="max">
        <routeDistribution>
            <route cost="87.53" probability="1.00000000" edges="-523 -338 -123 125 344 365 535 3719"/>
        </routeDistribution>
    </vehicle>
    <vehicle id="85" depart="91.00" type="DEFAULT_VEHTYPE" fromTaz="1323" toTaz="-3853" departLane="free" departSpeed="max">
        <routeDistribution>
            <route cost="138.52" probability="1.00000000" edges="1323 1373 1431 1526 1891 2110 2206 2502 3137 3853 -3853"/>
        </routeDistribution>
    </vehicle>
    <vehicle id="88" depart="92.00" type="DEFAULT_VEHTYPE" fromTaz="-2732" toTaz="2185" departLane="free" departSpeed="max">
        <routeDistribution>
            <route cost="139.06" probability="1.00000000" edges="-2732 2766 3497 4050 -589 -325 -117 119 330 -2200 -2186 2185"/>
        </routeDistribution>
    </vehicle>
    <vehicle id="87" depart="92.00" type="DEFAULT_VEHTYPE" fromTaz="1345" toTaz="-698" departLane="free" departSpeed="max">
        <routeDistribution>
            <route cost="75.30" probability="1.00000000" edges="1345 -1345 -1342 1343 -1199 -1027 -698"/>
        </routeDistribution>
    </vehicle>
    <vehicle id="86" depart="92.00" type="DEFAULT_VEHTYPE" fromTaz="1501" toTaz="-4505" departLane="free" departSpeed="max">
        <routeDistribution>
            <route cost="241.79" probability="1.00000000" edges="1501 1774 1882 2200 -330 -119 -15 13 -17 25 128 383 579 618 867 2158 2423 2903 4495 4505 -4505"/>
        </routeDistribution>
    </vehicle>
    <vehicle id="90" depart="93.00" type="DEFAULT_VEHTYPE" fromTaz="-2412" toTaz="-2439" departLane="free" departSpeed="max">
        <routeDistribution>
            <route cost="32.06" probability="1.00000000" edges="-2412 2412 2873 -2439"/>