<?xml version="1.0" encoding="UTF-8"?>

<!-- generated on 2023-04-28 16:58:56 by Eclipse SUMO marouter Version 1.16.0
<configuration xmlns:xsi="http://www.w3.org/2001/XMLSchema-instance" xsi:noNamespaceSchemaLocation="http://sumo.dlr.de/xsd/marouterConfiguration.xsd">

    <input>
        <net-file value="./configurations/maps/Random_English.net.xml"/>
        <route-files value="./configurations/Rounds/Random_English.net.xml-test_R-2/Trips_File.rou.xml"/>
    </input>

    <output>
        <output-file value="./023/Trips_File_023.rou.xml"/>
    </output>

    <processing>
        <max-iterations value="24"/>
    </processing>

</configuration>
-->

<routes xmlns:xsi="http://www.w3.org/2001/XMLSchema-instance" xsi:noNamespaceSchemaLocation="http://sumo.dlr.de/xsd/routes_file.xsd">
    <vehicle id="3" depart="0.00" type="DEFAULT_VEHTYPE" fromTaz="2201" toTaz="732" departLane="free" departSpeed="max">
        <routeDistribution>
            <route cost="116.07" probability="1.00000000" edges="2201 -2112 -1891 -1526 1524 1533 1535 -876 -639 625 732"/>
        </routeDistribution>
    </vehicle>
    <vehicle id="2" depart="0.00" type="DEFAULT_VEHTYPE" fromTaz="3095" toTaz="-569" departLane="free" departSpeed="max">
        <routeDistribution>
            <route cost="238.51" probability="1.00000000" edges="3095 -3095 -2453 2449 -2194 -1950 -1942 -1883 -1526 1524 1533 -1494 1357 1415 -523 -338 -123 125 344 365 569 -569"/>
        </routeDistribution>
    </vehicle>
    <vehicle id="4" depart="1.00" type="DEFAULT_VEHTYPE" fromTaz="319" toTaz="876" departLane="free" departSpeed="max">
        <routeDistribution>
            <route cost="34.82" probability="1.00000000" edges="319 639 876"/>
        </routeDistribution>
    </vehicle>
    <vehicle id="5" depart="3.00" type="DEFAULT_VEHTYPE" fromTaz="-2285" toTaz="-1464" departLane="free" departSpeed="max">
        <routeDistribution>
            <route cost="140.64" probability="1.00000000" edges="-2285 -837 -330 -119 117 313 -326 -121 125 344 365 533 1388 1464 -1464"/>
        </routeDistribution>
    </vehicle>
    <vehicle id="6" depart="4.00" type="DEFAULT_VEHTYPE" fromTaz="-2766" toTaz="3137" departLane="free" departSpeed="max">
        <routeDistribution>
            <route cost="119.33" probability="1.00000000" edges="-2766 2756 3439 2166 2168 -2202 2206 2502 3137"/>
        </routeDistribution>
    </vehicle>
    <vehicle id="9" depart="5.00" type="DEFAULT_VEHTYPE" fromTaz="-1767" toTaz="-1919" departLane="free" departSpeed="max">
        <routeDistribution>
            <route cost="164.36" probability="0.12500000" edges="-1767 1767 1357 1415 -523 -338 -123 125 -126 128 383 579 614 2149 -1919"/>
            <route cost="164.34" probability="0.37500000" edges="-1767 1767 1357 1415 -523 -338 -123 -19 25 128 383 579 614 2149 -1919"/>
            <route cost="164.36" probability="0.50000000" edges="-1767 1767 1357 1415 -523 -338 -123 125 344 -349 585 -613 614 2149 -1919"/>
        </routeDistribution>
    </vehicle>
    <vehicle id="7" depart="5.00" type="DEFAULT_VEHTYPE" fromTaz="-1944" toTaz="592" departLane="free" departSpeed="max">
        <routeDistribution>
            <route cost="104.10" probability="1.00000000" edges="-1944 -1797 -1517 1523 1882 2200 -330 332 592"/>
        </routeDistribution>
    </vehicle>
    <vehicle id="8" depart="5.00" type="DEFAULT_VEHTYPE" fromTaz="1388" toTaz="-2291" departLane="free" departSpeed="max">
        <routeDistribution>
            <route cost="125.19" probability="1.00000000" edges="1388 -1388 -533 -365 -344 -125 123 338 505 597 684 2291 -2291"/>
        </routeDistribution>
    </vehicle>
    <vehicle id="10" depart="5.00" type="DEFAULT_VEHTYPE" fromTaz="3162" toTaz="-3734" departLane="free" departSpeed="max">
        <routeDistribution>
            <route cost="181.60" probability="0.79166667" edges="3162 -3772 -1201 -1027 -698 -11 9 25 210 349 365 569 2876 3734 -3734"/>
            <route cost="181.37" probability="0.20833333" edges="3162 -3772 -1201 -1027 -698 696 -679 333 -138 210 349 365 569 2876 3734 -3734"/>
        </routeDistribution>
    </vehicle>
    <vehicle id="11" depart="6.00" type="DEFAULT_VEHTYPE" fromTaz="2291" toTaz="2895" departLane="free" departSpeed="max">
        <routeDistribution>
            <route cost="175.20" probability="0.12500000" edges="2291 -2291 -684 -597 -505 -338 -123 125 -126 128 383 579 618 867 2158 2423 2895"/>
            <route cost="175.18" probability="0.37500000" edges="2291 -2291 -684 -597 -505 -338 -123 -19 25 128 383 579 618 867 2158 2423 2895"/>
            <route cost="175.20" probability="0.50000000" edges="2291 -2291 -684 -597 -505 -338 -123 125 344 -349 585 -613 618 867 2158 2423 2895"/>
        </routeDistribution>
    </vehicle>
    <vehicle id="12" depart="7.00" type="DEFAULT_VEHTYPE" fromTaz="-2425" toTaz="2291" departLane="free" departSpeed="max">
        <routeDistribution>
            <route cost="162.00" probability="0.25000000" edges="-2425 -2158 -867 -618 -579 -383 -128 126 -125 123 338 505 597 684 2291"/>
            <route cost="161.97" probability="0.75000000" edges="-2425 -2158 -867 -618 613 -585 349 -344 -125 123 338 505 597 684 2291"/>
        </routeDistribution>
    </vehicle>
    <vehicle id="14" depart="9.00" type="DEFAULT_VEHTYPE" fromTaz="-867" toTaz="2194" departLane="free" departSpeed="max">
        <routeDistribution>
            <route cost="203.73" probability="1.00000000" edges="-867 -618 -579 -383 -128 -25 17 38 319 639 876 -1535 -1533 -1524 1526 1883 1942 1950 2194"/>
        </routeDistribution>
    </vehicle>
    <vehicle id="15" depart="9.00" type="DEFAULT_VEHTYPE" fromTaz="117" toTaz="-1501" departLane="free" departSpeed="max">
        <routeDistribution>
            <route cost="84.93" probability="1.00000000" edges="117 -117 119 330 -2200 -1882 -1774 -1501"/>
        </routeDistribution>
    </vehicle>
    <vehicle id="13" depart="9.00" type="DEFAULT_VEHTYPE" fromTaz="625" toTaz="-3920" departLane="free" departSpeed="max">
        <routeDistribution>
            <route cost="85.86" probability="1.00000000" edges="625 732 837 -674 650 2724 3920 -3920"/>
        </routeDistribution>
    </vehicle>
    <vehicle id="17" depart="10.00" type="DEFAULT_VEHTYPE" fromTaz="-4505" toTaz="1944" departLane="free" departSpeed="max">
        <routeDistribution>
            <route cost="248.01" probability="1.00000000" edges="-4505 -4495 -2903 -2423 -2158 -867 -618 -579 -383 -128 -25 17 38 319 639 876 -1535 -1533 -1524 1526 1883 1942 1944"/>
        </routeDistribution>
    </vehicle>
    <vehicle id="16" depart="10.00" type="DEFAULT_VEHTYPE" fromTaz="1373" toTaz="-1767" departLane="free" departSpeed="max">
        <routeDistribution>
            <route cost="58.35" probability="1.00000000" edges="1373 1447 -1494 -1767"/>
        </routeDistribution>
    </vehicle>
    <vehicle id="18" depart="11.00" type="DEFAULT_VEHTYPE" fromTaz="2209" toTaz="-2963" departLane="free" departSpeed="max">
        <routeDistribution>
            <route cost="262.71" probability="1.00000000" edges="2209 -2209 -2120 2128 -2168 -1930 1767 1357 1415 -523 -338 -123 125 344 365 535 2412 2873 2979 -3764 -2969 2963 -4474 4474 -2963"/>
        </routeDistribution>
    </vehicle>
    <vehicle id="19" depart="12.00" type="DEFAULT_VEHTYPE" fromTaz="-2202" toTaz="2425" departLane="free" departSpeed="max">
        <routeDistribution>
            <route cost="219.68" probability="0.12500000" edges="-2202 2202 -2168 -1930 1767 1357 1415 -523 -338 -123 125 -126 128 383 579 618 867 2158 2425"/>
            <route cost="219.67" probability="0.37500000" edges="-2202 2202 -2168 -1930 1767 1357 1415 -523 -338 -123 -19 25 128 383 579 618 867 2158 2425"/>
            <route cost="219.69" probability="0.50000000" edges="-2202 2202 -2168 -1930 1767 1357 1415 -523 -338 -123 125 344 -349 585 -613 618 867 2158 2425"/>
        </routeDistribution>
    </vehicle>
    <vehicle id="21" depart="14.00" type="DEFAULT_VEHTYPE" fromTaz="-123" toTaz="-504" departLane="free" departSpeed="max">
        <routeDistribution>
            <route cost="54.32" probability="1.00000000" edges="-123 123 338 505 -504"/>
        </routeDistribution>
    </vehicle>
    <vehicle id="20" depart="14.00" type="DEFAULT_VEHTYPE" fromTaz="-2206" toTaz="1494" departLane="free" departSpeed="max">
        <routeDistribution>
            <route cost="78.87" probability="1.00000000" edges="-2206 2202 -2168 -1930 1767 1494"/>
        </routeDistribution>
    </vehicle>
    <vehicle id="22" depart="14.00" type="DEFAULT_VEHTYPE" fromTaz="1357" toTaz="2714" departLane="free" departSpeed="max">
        <routeDistribution>
            <route cost="115.47" probability="1.00000000" edges="1357 1415 -589 -325 -117 119 332 592 642 846 2714"/>
        </routeDistribution>
    </vehicle>
    <vehicle id="23" depart="15.00" type="DEFAULT_VEHTYPE" fromTaz="383" toTaz="-2756" departLane="free" departSpeed="max">
        <routeDistribution>
            <route cost="123.42" probability="0.33333333" edges="383 -383 -128 -25 19 123 338 523 -4050 -3497 -3438 -2756"/>
            <route cost="123.42" probability="0.66666667" edges="383 -383 -128 126 -125 123 338 523 -4050 -3497 -3438 -2756"/>
        </routeDistribution>
    </vehicle>
    <vehicle id="24" depart="16.00" type="DEFAULT_VEHTYPE" fromTaz="-684" toTaz="3744" departLane="free" departSpeed="max">
        <routeDistribution>
            <route cost="166.09" probability="0.12500000" edges="-684 -597 -505 -338 -123 125 -126 128 383 579 618 867 2158 2423 2895 3744"/>
            <route cost="166.07" probability="0.37500000" edges="-684 -597 -505 -338 -123 -19 25 128 383 579 618 867 2158 2423 2895 3744"/>
            <route cost="166.09" probability="0.50000000" edges="-684 -597 -505 -338 -123 125 344 -349 585 -613 618 867 2158 2423 2895 3744"/>
        </routeDistribution>
    </vehicle>
    <vehicle id="26" depart="17.00" type="DEFAULT_VEHTYPE" fromTaz="-116" toTaz="3121" departLane="free" departSpeed="max">
        <routeDistribution>
            <route cost="121.52" probability="1.00000000" edges="-116 -13 15 119 330 -2200 -2186 2185 2482 -3121 3121"/>
        </routeDistribution>
    </vehicle>
    <vehicle id="25" depart="17.00" type="DEFAULT_VEHTYPE" fromTaz="-1798" toTaz="-3787" departLane="free" departSpeed="max">
        <routeDistribution>
            <route cost="102.87" probability="1.00000000" edges="-1798 -1774 1775 1935 2171 3091 3787 -3787"/>
        </routeDistribution>
    </vehicle>
    <vehicle id="27" depart="18.00" type="DEFAULT_VEHTYPE" fromTaz="7" toTaz="11" departLane="free" departSpeed="max">
        <routeDistribution>
            <route cost="37.16" probability="1.00000000" edges="7 -7 11"/>
        </routeDistribution>
    </vehicle>
    <vehicle id="28" depart="19.00" type="DEFAULT_VEHTYPE" fromTaz="1357" toTaz="-2724" departLane="free" departSpeed="max">
        <routeDistribution>
            <route cost="140.06" probability="1.00000000" edges="1357 1415 -589 -325 -117 119 332 592 650 2724 3920 -3920 -2724"/>
        </routeDistribution>
    </vehicle>
    <vehicle id="29" depart="21.00" type="DEFAULT_VEHTYPE" fromTaz="3764" toTaz="3137" departLane="free" departSpeed="max">
        <routeDistribution>
            <route cost="234.50" probability="1.00000000" edges="3764 -2979 -2873 -2412 -535 -365 -344 -125 123 338 523 -1415 -1357 -1767 1930 2168 -2202 2206 2502 3137"/>
        </routeDistribution>
    </vehicle>
    <vehicle id="30" depart="22.00" type="DEFAULT_VEHTYPE" fromTaz="-1415" toTaz="-4473" departLane="free" departSpeed="max">
        <routeDistribution>
            <route cost="219.64" probability="0.12500000" edges="-1415 1415 -523 -338 -123 125 -126 128 383 579 618 867 2158 2423 2895 3742 4473 -4473"/>
            <route cost="219.62" probability="0.37500000" edges="-1415 1415 -523 -338 -123 -19 25 128 383 579 618 867 2158 2423 2895 3742 4473 -4473"/>
            <route cost="219.64" probability="0.50000000" edges="-1415 1415 -523 -338 -123 125 344 -349 585 -613 618 867 2158 2423 2895 3742 4473 -4473"/>
        </routeDistribution>
    </vehicle>
    <vehicle id="31" depart="23.00" type="DEFAULT_VEHTYPE" fromTaz="-1517" toTaz="4257" departLane="free" departSpeed="max">
        <routeDistribution>
            <route cost="182.86" probability="1.00000000" edges="-1517 -1429 -1363 1359 -876 -639 -319 313 -326 -121 125 344 365 533 1388 1464 3611 4257"/>
        </routeDistribution>
    </vehicle>
    <vehicle id="32" depart="24.00" type="DEFAULT_VEHTYPE" fromTaz="2421" toTaz="1391" departLane="free" departSpeed="max">
        <routeDistribution>
            <route cost="107.80" probability="1.00000000" edges="2421 -2421 -2149 -614 613 -601 -535 569 1391"/>
        </routeDistribution>
    </vehicle>
    <vehicle id="33" depart="27.00" type="DEFAULT_VEHTYPE" fromTaz="-2171" toTaz="-3639" departLane="free" departSpeed="max">
        <routeDistribution>
            <route cost="226.02" probability="1.00000000" edges="-2171 -1935 -1775 1774 1882 2200 -330 -119 117 313 -326 -121 125 344 365 569 2876 3720 -3639"/>
        </routeDistribution>
    </vehicle>
    <vehicle id="34" depart="28.00" type="DEFAULT_VEHTYPE" fromTaz="-1483" toTaz="-333" departLane="free" departSpeed="max">
        <routeDistribution>
            <route cost="117.18" probability="0.16666667" edges="-1483 -1425 1415 -523 -338 -123 125 -126 138 -333"/>
            <route cost="117.16" probability="0.83333333" edges="-1483 -1425 1415 -523 -338 -123 -19 25 138 -333"/>
        </routeDistribution>
    </vehicle>
    <vehicle id="35" depart="29.00" type="DEFAULT_VEHTYPE" fromTaz="-3814" toTaz="1773" departLane="free" departSpeed="max">
        <routeDistribution>
            <route cost="76.30" probability="1.00000000" edges="-3814 -3800 -2171 -1935 -1775 1773"/>
        </routeDistribution>
    </vehicle>
    <vehicle id="36" depart="30.00" type="DEFAULT_VEHTYPE" fromTaz="-3611" toTaz="-1535" departLane="free" departSpeed="max">
        <routeDistribution>
            <route cost="141.38" probability="1.00000000" edges="-3611 -1464 -1388 -533 -365 -344 -125 121 326 -313 319 639 876 -1535"/>
        </routeDistribution>
    </vehicle>
    <vehicle id="37" depart="31.00" type="DEFAULT_VEHTYPE" fromTaz="-2149" toTaz="1798" departLane="free" departSpeed="max">
        <routeDistribution>
            <route cost="153.11" probability="1.00000000" edges="-2149 -614 -579 -383 -128 -25 17 -13 15 119 330 -2200 -1882 1798"/>
        </routeDistribution>
    </vehicle>
    <vehicle id="38" depart="31.00" type="DEFAULT_VEHTYPE" fromTaz="588" toTaz="4256" departLane="free" departSpeed="max">
        <routeDistribution>
            <route cost="122.74" probability="1.00000000" edges="588 -517 -338 -123 125 344 365 533 1388 1464 3607 4256"/>
        </routeDistribution>
    </vehicle>
    <vehicle id="39" depart="33.00" type="DEFAULT_VEHTYPE" fromTaz="-2425" toTaz="-2486" departLane="free" departSpeed="max">
        <routeDistribution>
            <route cost="241.66" probability="1.00000000" edges="-2425 -2158 -867 -618 -579 -383 -128 -25 17 -13 15 119 330 -2200 -2186 2185 2482 -3121 3122 -2486"/>
        </routeDistribution>
    </vehicle>
    <vehicle id="41" depart="36.00" type="DEFAULT_VEHTYPE" fromTaz="-126" toTaz="-2881" departLane="free" departSpeed="max">
        <routeDistribution>
            <route cost="105.18" probability="1.00000000" edges="-126 128 383 579 614 2149 2421 2881 -2881"/>
        </routeDistribution>
    </vehicle>
    <vehicle id="40" depart="36.00" type="DEFAULT_VEHTYPE" fromTaz="533" toTaz="2300" departLane="free" departSpeed="max">
        <routeDistribution>
            <route cost="114.74" probability="1.00000000" edges="533 -533 -365 -344 -125 123 338 523 1057 2300"/>
        </routeDistribution>
    </vehicle>
    <vehicle id="42" depart="39.00" type="DEFAULT_VEHTYPE" fromTaz="2285" toTaz="2168" departLane="free" departSpeed="max">
        <routeDistribution>
            <route cost="108.81" probability="1.00000000" edges="2285 -2285 -837 -732 -625 639 880 -1767 1930 2168"/>
        </routeDistribution>
    </vehicle>
    <vehicle id="43" depart="40.00" type="DEFAULT_VEHTYPE" fromTaz="608" toTaz="-3252" departLane="free" departSpeed="max">
        <routeDistribution>
            <route cost="99.79" probability="1.00000000" edges="608 -608 612 1005 1093 1343 -1199 1201 3773 -3252"/>
        </routeDistribution>
    </vehicle>
    <vehicle id="44" depart="41.00" type="DEFAULT_VEHTYPE" fromTaz="1427" toTaz="-3761" departLane="free" departSpeed="max">
        <routeDistribution>
            <route cost="215.07" probability="1.00000000" edges="1427 1447 1535 -876 -639 -319 -38 -17 25 128 383 579 618 867 2158 2423 2903 4495 -3761"/>
        </routeDistribution>
    </vehicle>
    <vehicle id="45" depart="42.00" type="DEFAULT_VEHTYPE" fromTaz="-326" toTaz="1427" departLane="free" departSpeed="max">
        <routeDistribution>
            <route cost="96.91" probability="1.00000000" edges="-326 326 -313 319 639 876 -1359 1363 1427"/>
        </routeDistribution>
    </vehicle>
    <vehicle id="46" depart="43.00" type="DEFAULT_VEHTYPE" fromTaz="-3907" toTaz="2112" departLane="free" departSpeed="max">
        <routeDistribution>
            <route cost="150.35" probability="1.00000000" edges="-3907 -3166 -848 -650 674 -837 -2200 -1882 -1523 1517 1783 -1883 1891 2112"/>
        </routeDistribution>
    </vehicle>
    <vehicle id="47" depart="43.00" type="DEFAULT_VEHTYPE" fromTaz="-4474" toTaz="-3737" departLane="free" departSpeed="max">
        <routeDistribution>
            <route cost="78.83" probability="1.00000000" edges="-4474 -3744 -2895 2961 -3740 3739 -3737"/>
        </routeDistribution>
    </vehicle>
    <vehicle id="48" depart="46.00" type="DEFAULT_VEHTYPE" fromTaz="2291" toTaz="-3740" departLane="free" departSpeed="max">
        <routeDistribution>
            <route cost="190.99" probability="0.12500000" edges="2291 -2291 -684 -597 -505 -338 -123 125 -126 128 383 579 618 867 2158 2423 2961 -3740"/>
            <route cost="190.97" probability="0.37500000" edges="2291 -2291 -684 -597 -505 -338 -123 -19 25 128 383 579 618 867 2158 2423 2961 -3740"/>
            <route cost="190.99" probability="0.50000000" edges="2291 -2291 -684 -597 -505 -338 -123 125 344 -349 585 -613 618 867 2158 2423 2961 -3740"/>
        </routeDistribution>
    </vehicle>
    <vehicle id="49" depart="46.00" type="DEFAULT_VEHTYPE" fromTaz="4467" toTaz="1941" departLane="free" departSpeed="max">
        <routeDistribution>
            <route cost="241.96" probability="1.00000000" edges="4467 -4467 -3742 -2895 -2423 -2158 -867 -618 -579 -383 -128 -25 17 -13 15 119 330 -2200 -2186 -1941 1941"/>
        </routeDistribution>
    </vehicle>
    <vehicle id="50" depart="47.00" type="DEFAULT_VEHTYPE" fromTaz="3437" toTaz="2112" departLane="free" departSpeed="max">
        <routeDistribution>
            <route cost="90.79" probability="1.00000000" edges="3437 -3437 3435 3439 2166 2168 -2128 2112"/>
        </routeDistribution>
    </vehicle>
    <vehicle id="54" depart="48.00" type="DEFAULT_VEHTYPE" fromTaz="-2201" toTaz="123" departLane="free" departSpeed="max">
        <routeDistribution>
            <route cost="123.45" probability="1.00000000" edges="-2201 2202 -2168 -1930 1767 1357 1415 -523 -338 -123 123"/>
        </routeDistribution>
    </vehicle>
    <vehicle id="52" depart="48.00" type="DEFAULT_VEHTYPE" fromTaz="-365" toTaz="13" departLane="free" departSpeed="max">
        <routeDistribution>
            <route cost="73.66" probability="1.00000000" edges="-365 -344 -125 121 -64 -13 13"/>
        </routeDistribution>
    </vehicle>
    <vehicle id="55" depart="48.00" type="DEFAULT_VEHTYPE" fromTaz="-4050" toTaz="-679" departLane="free" departSpeed="max">
        <routeDistribution>
            <route cost="121.57" probability="1.00000000" edges="-4050 -3497 3497 4050 -589 -325 -117 -15 -3 11 696 -679"/>
        </routeDistribution>
    </vehicle>
    <vehicle id="53" depart="48.00" type="DEFAULT_VEHTYPE" fromTaz="1427" toTaz="-2607" departLane="free" departSpeed="max">
        <routeDistribution>
            <route cost="40.22" probability="1.00000000" edges="1427 1441 2278 -2607"/>
        </routeDistribution>
    </vehicle>
    <vehicle id="51" depart="48.00" type="DEFAULT_VEHTYPE" fromTaz="2188" toTaz="-1941" departLane="free" departSpeed="max">
        <routeDistribution>
            <route cost="83.07" probability="1.00000000" edges="2188 -2006 -1797 -1517 1523 1798 1941 -1941"/>
        </routeDistribution>
    </vehicle>
    <vehicle id="56" depart="49.00" type="DEFAULT_VEHTYPE" fromTaz="3920" toTaz="-734" departLane="free" departSpeed="max">
        <routeDistribution>
            <route cost="119.34" probability="1.00000000" edges="3920 -3920 -2724 -650 674 -837 -732 734 1033 -1033 -734"/>
        </routeDistribution>
    </vehicle>
    <vehicle id="57" depart="50.00" type="DEFAULT_VEHTYPE" fromTaz="-1342" toTaz="-684" departLane="free" departSpeed="max">
        <routeDistribution>
            <route cost="125.57" probability="1.00000000" edges="-1342 -1093 -1029 -728 -11 9 19 123 338 505 597 684 -684"/>
        </routeDistribution>
    </vehicle>
    <vehicle id="58" depart="50.00" type="DEFAULT_VEHTYPE" fromTaz="1517" toTaz="-3764" departLane="free" departSpeed="max">
        <routeDistribution>
            <route cost="196.09" probability="1.00000000" edges="1517 -1517 -1429 -1363 1359 -876 -639 -319 -38 -17 25 128 383 579 618 2439 2979 -3764"/>
        </routeDistribution>
    </vehicle>
    <vehicle id="59" depart="51.00" type="DEFAULT_VEHTYPE" fromTaz="2110" toTaz="-2969" departLane="free" departSpeed="max">
        <routeDistribution>
            <route cost="208.39" probability="1.00000000" edges="2110 2202 -2168 -1930 1767 1357 1415 -523 -338 -123 125 344 365 535 2412 2873 2979 -3764 -2969"/>
        </routeDistribution>
    </vehicle>
    <vehicle id="61" depart="52.00" type="DEFAULT_VEHTYPE" fromTaz="-585" toTaz="-3744" departLane="free" departSpeed="max">
        <routeDistribution>
            <route cost="108.57" probability="1.00000000" edges="-585 585 -601 2412 2873 2979 -3764 -2969 2963 -4474 -3744"/>
        </routeDistribution>
    </vehicle>
    <vehicle id="60" depart="52.00" type="DEFAULT_VEHTYPE" fromTaz="2289" toTaz="-2482" departLane="free" departSpeed="max">
        <routeDistribution>
            <route cost="171.31" probability="1.00000000" edges="2289 2766 3497 4050 -589 -325 -117 119 330 -2200 -2186 2185 2482 -2482"/>
        </routeDistribution>
    </vehicle>
    <vehicle id="63" depart="54.00" type="DEFAULT_VEHTYPE" fromTaz="-728" toTaz="1774" departLane="free" departSpeed="max">
        <routeDistribution>
            <route cost="114.71" probability="1.00000000" edges="-728 -11 3 15 119 330 -2200 -1882 -1774 1774"/>
        </routeDistribution>
    </vehicle>
    <vehicle id="62" depart="54.00" type="DEFAULT_VEHTYPE" fromTaz="1532" toTaz="-1359" departLane="free" departSpeed="max">
        <routeDistribution>
            <route cost="65.27" probability="1.00000000" edges="1532 2607 -2278 1533 1535 -1359"/>
        </routeDistribution>
    </vehicle>
    <vehicle id="64" depart="56.00" type="DEFAULT_VEHTYPE" fromTaz="-2872" toTaz="-3814" departLane="free" departSpeed="max">
        <routeDistribution>
            <route cost="225.03" probability="1.00000000" edges="-2872 -533 -365 -344 -125 121 326 -313 -117 119 330 -2200 -2186 2185 2482 -3779 -3091 3800 3814 -3814"/>
        </routeDistribution>
    </vehicle>
    <vehicle id="65" depart="59.00" type="DEFAULT_VEHTYPE" fromTaz="-612" toTaz="1483" departLane="free" departSpeed="max">
        <routeDistribution>
            <route cost="135.27" probability="0.33333333" edges="-612 -577 -383 -128 -25 19 123 338 523 -1415 1425 1483"/>
            <route cost="135.27" probability="0.66666667" edges="-612 -577 -383 -128 126 -125 123 338 523 -1415 1425 1483"/>
        </routeDistribution>
    </vehicle>
    <vehicle id="66" depart="61.00" type="DEFAULT_VEHTYPE" fromTaz="-2766" toTaz="577" departLane="free" departSpeed="max">
        <routeDistribution>
            <route cost="122.94" probability="0.16666667" edges="-2766 -2289 -684 -597 -505 -338 -123 125 -126 128 383 577"/>
            <route cost="122.92" probability="0.83333333" edges="-2766 -2289 -684 -597 -505 -338 -123 -19 25 128 383 577"/>
        </routeDistribution>
    </vehicle>
    <vehicle id="68" depart="62.00" type="DEFAULT_VEHTYPE" fromTaz="-3611" toTaz="3883" departLane="free" departSpeed="max">
        <routeDistribution>
            <route cost="225.84" probability="1.00000000" edges="-3611 -1464 -1388 -533 -365 -344 -125 123 338 523 -1415 -1357 -1767 1930 2168 -2202 2206 2502 3137 3883"/>
        </routeDistribution>
    </vehicle>
    <vehicle id="67" depart="62.00" type="DEFAULT_VEHTYPE" fromTaz="2200" toTaz="1415" departLane="free" departSpeed="max">
        <routeDistribution>
            <route cost="82.46" probability="1.00000000" edges="2200 -732 -625 639 880 1357 1415"/>
        </routeDistribution>
    </vehicle>
    <vehicle id="69" depart="63.00" type="DEFAULT_VEHTYPE" fromTaz="2486" toTaz="-2903" departLane="free" departSpeed="max">
        <routeDistribution>
            <route cost="251.15" probability="1.00000000" edges="2486 -3122 3121 -2482 -2185 2186 2200 -330 -119 -15 13 -17 25 128 383 579 618 867 2158 2423 2903 -2903"/>
        </routeDistribution>
    </vehicle>
    <vehicle id="70" depart="65.00" type="DEFAULT_VEHTYPE" fromTaz="3252" toTaz="3799" departLane="free" departSpeed="max">
        <routeDistribution>
            <route cost="163.40" probability="1.00000000" edges="3252 -3773 3773 -3252 -848 -650 674 -837 -2200 -2186 2185 2482 -3779 3799"/>
        </routeDistribution>
    </vehicle>
    <vehicle id="71" depart="66.00" type="DEFAULT_VEHTYPE" fromTaz="-1342" toTaz="3740" departLane="free" departSpeed="max">
        <routeDistribution>
            <route cost="81.83" probability="1.00000000" edges="-1342 1342 1345 1404 3737 -3739 3740"/>
        </routeDistribution>
    </vehicle>
    <vehicle id="72" depart="66.00" type="DEFAULT_VEHTYPE" fromTaz="1501" toTaz="3897" departLane="free" departSpeed="max">
        <routeDistribution>
            <route cost="94.05" probability="1.00000000" edges="1501 -1501 1517 1783 -1883 1891 2112 3145 3897"/>
        </routeDistribution>
    </vehicle>
    <vehicle id="74" depart="67.00" type="DEFAULT_VEHTYPE" fromTaz="-1942" toTaz="3907" departLane="free" departSpeed="max">
        <routeDistribution>
            <route cost="128.65" probability="1.00000000" edges="-1942 -1783 -1517 1523 1882 2200 837 -674 650 848 3166 3907"/>
        </routeDistribution>
    </vehicle>
    <vehicle id="73" depart="67.00" type="DEFAULT_VEHTYPE" fromTaz="-618" toTaz="3639" departLane="free" departSpeed="max">
        <routeDistribution>
            <route cost="79.83" probability="1.00000000" edges="-618 618 2439 2979 3769 -4257 -3611 3639"/>
        </routeDistribution>
    </vehicle>
    <vehicle id="75" depart="68.00" type="DEFAULT_VEHTYPE" fromTaz="3162" toTaz="1775" departLane="free" departSpeed="max">
        <routeDistribution>
            <route cost="137.44" probability="1.00000000" edges="3162 -3772 3773 -3252 -848 -650 674 -837 -2200 -1882 -1774 1775"/>
        </routeDistribution>
    </vehicle>
    <vehicle id="76" depart="69.00" type="DEFAULT_VEHTYPE" fromTaz="2893" toTaz="-1930" departLane="free" departSpeed="max">
        <routeDistribution>
            <route cost="199.17" probability="0.25000000" edges="2893 -2893 -2421 -2149 -614 -579 -383 -128 126 -125 123 338 523 -1415 -1357 -1767 1930 -1930"/>
            <route cost="199.14" probability="0.75000000" edges="2893 -2893 -2421 -2149 -614 613 -585 349 -344 -125 123 338 523 -1415 -1357 -1767 1930 -1930"/>
        </routeDistribution>
    </vehicle>
    <vehicle id="77" depart="70.00" type="DEFAULT_VEHTYPE" fromTaz="-17" toTaz="361" departLane="free" departSpeed="max">
        <routeDistribution>
            <route cost="52.49" probability="1.00000000" edges="-17 19 123 336 361"/>
        </routeDistribution>
    </vehicle>
    <vehicle id="78" depart="71.00" type="DEFAULT_VEHTYPE" fromTaz="1323" toTaz="-3764" departLane="free" departSpeed="max">
        <routeDistribution>
            <route cost="172.60" probability="1.00000000" edges="1323 1359 -876 -639 -319 -38 -17 25 128 383 579 618 2439 2979 -3764"/>
        </routeDistribution>
    </vehicle>
    <vehicle id="79" depart="73.00" type="DEFAULT_VEHTYPE" fromTaz="-1464" toTaz="1767" departLane="free" departSpeed="max">
        <routeDistribution>
            <route cost="143.03" probability="1.00000000" edges="-1464 -1388 -533 -365 -344 -125 123 338 523 -1415 -1357 -1767 1767"/>
        </routeDistribution>
    </vehicle>
    <vehicle id="80" depart="73.00" type="DEFAULT_VEHTYPE" fromTaz="-3744" toTaz="2198" departLane="free" departSpeed="max">
        <routeDistribution>
            <route cost="250.36" probability="1.00000000" edges="-3744 -2895 -2423 -2158 -867 -618 -579 -383 -128 -25 17 38 319 639 876 -1535 -1533 -1524 1526 1883 1942 1950 2198"/>
        </routeDistribution>
    </vehicle>
    <vehicle id="81" depart="74.00" type="DEFAULT_VEHTYPE" fromTaz="-3328" toTaz="2732" departLane="free" departSpeed="max">
        <routeDistribution>
            <route cost="122.52" probability="1.00000000" edges="-3328 -848 -650 -592 -332 -119 117 325 589 -4050 -3497 -2766 2732"/>
        </routeDistribution>
    </vehicle>
    <vehicle id="82" depart="75.00" type="DEFAULT_VEHTYPE" fromTaz="696" toTaz="-121" departLane="free" departSpeed="max">
        <routeDistribution>
            <route cost="70.25" probability="1.00000000" edges="696 -696 -11 3 13 64 -121"/>
        </routeDistribution>
    </vehicle>