<?xml version="1.0" encoding="UTF-8"?>

<!-- generated on 2023-04-28 17:26:57 by Eclipse SUMO duarouter Version 1.16.0
<configuration xmlns:xsi="http://www.w3.org/2001/XMLSchema-instance" xsi:noNamespaceSchemaLocation="http://sumo.dlr.de/xsd/duarouterConfiguration.xsd">

    <input>
        <net-file value="013/../configurations/maps/Random_English.net.xml"/>
        <route-files value="013/../012/Trips_File_012.rou.alt.xml"/>
        <weight-files value="013/../012/dump_900.xml"/>
    </input>

    <output>
        <output-file value="013/Trips_File_013.rou.xml"/>
        <exit-times value="False"/>
    </output>

    <processing>
        <max-alternatives value="5"/>
        <with-taz value="False"/>
        <routing-algorithm value="dijkstra"/>
        <weights.expand value="true"/>
        <gawron.beta value="0.9"/>
        <gawron.a value="0.5"/>
        <keep-all-routes value="False"/>
        <logit.beta value="0.15"/>
        <logit.gamma value="1.0"/>
    </processing>

    <time>
        <begin value="0"/>
    </time>

    <report>
        <verbose value="False"/>
        <no-warnings value="False"/>
        <ignore-errors value="False"/>
        <no-step-log value="true"/>
    </report>

    <random_number>
        <random value="False"/>
    </random_number>

</configuration>
-->

<routes xmlns:xsi="http://www.w3.org/2001/XMLSchema-instance" xsi:noNamespaceSchemaLocation="http://sumo.dlr.de/xsd/routes_file.xsd">
    <vehicle id="2" depart="0.00">
        <route edges="13 64 -121 125 344 365 569 2876 -2876"/>
    </vehicle>
    <vehicle id="3" depart="0.00">
        <route edges="2285 -2285 -837 -330 -119 -15 13 -17 25 210 585 -613 618 867 2158 2425"/>
    </vehicle>
    <vehicle id="4" depart="0.00">
        <route edges="-686 -597 -505 523 1057 2300 -2300"/>
    </vehicle>
    <vehicle id="5" depart="3.00">
        <route edges="-1005 -612 -577 -383 381 349 365 569 2876"/>
    </vehicle>
    <vehicle id="6" depart="4.00">
        <route edges="3744 -3744 -2895 -2423 -2158 -867 -618 -579 -383 -128 -25 17 38 319 639 -730"/>
    </vehicle>
    <vehicle id="7" depart="4.00">
        <route edges="-3437 3435 3438 3497 4050 -589 -325 -117 119 330 -2200 -2186 2185 2486 -3122"/>
    </vehicle>
    <vehicle id="8" depart="5.00">
        <route edges="-601 601 -613 614 -608 612 1011 1345 1404"/>
    </vehicle>
    <vehicle id="9" depart="6.00">
        <route edges="2961 -3740 3739 -3737 -1404 -1345 -1011 1005 -1029 870 -679 356 -348"/>
    </vehicle>
    <vehicle id="10" depart="7.00">
        <route edges="1526 -1526 1524 1533 -1494 1357 1415 -523 -338 -123 125 344 365 535 3719"/>
    </vehicle>
    <vehicle id="11" depart="11.00">
        <route edges="-3847 -3131 -2502 -2206 2202 -2168 -1930 1767 -880 -639 -319 -117 -15 -3 11 696 -870"/>
    </vehicle>
    <vehicle id="12" depart="12.00">
        <route edges="-3744 -2895 -2423 -2158 -867 -618 -579 -383 -128 -25 17 -13 15 119 332 592 642 846 2714 3155"/>
    </vehicle>
    <vehicle id="13" depart="14.00">
        <route edges="840 -840 -642 674 -837 -2200 -1882 1798 1941"/>
    </vehicle>
    <vehicle id="14" depart="17.00">
        <route edges="1005 -1029 -728 -11 3 15 117 319 639 880 -1767 2447"/>
    </vehicle>
    <vehicle id="15" depart="18.00">
        <route edges="9 19"/>
    </vehicle>
    <vehicle id="16" depart="19.00">
        <route edges="-379 -344 -125 121 326 -313 -117 119 330 -2200 -1882 -1774 1775 -1771"/>
    </vehicle>
    <vehicle id="17" depart="19.00">
        <route edges="-2494 2502 -2502"/>
    </vehicle>
    <vehicle id="18" depart="19.00">
        <route edges="-3437 3435 3439 -1483 1493 2447 -2278 -1441 -1427 1429 1501 1775 1935 2171 3091 3787"/>
    </vehicle>
    <vehicle id="19" depart="23.00">
        <route edges="650 -650 674 -837 -2200 -1882 -1523 1517 1783 -1883 1891 -1891"/>
    </vehicle>
    <vehicle id="20" depart="23.00">
        <route edges="-3825 -2494 -2206 2201 3145 3885 -3885"/>
    </vehicle>
    <vehicle id="21" depart="24.00">
        <route edges="-1483 1493 2447 -2278 -1441 -1427 1429 1501 1775 1935 2171 3800"/>
    </vehicle>
    <vehicle id="22" depart="28.00">
        <route edges="-138 -25 17 -13 15 119 332 592 642 846 2714 -2714"/>
    </vehicle>
    <vehicle id="23" depart="30.00">
        <route edges="-3439 3438 3497 4050 -589 -325 -38 64"/>
    </vehicle>
    <vehicle id="24" depart="30.00">
        <route edges="-2149 2149 -1919 2158 2423 2903 4501 -4501"/>
    </vehicle>
    <vehicle id="25" depart="31.00">
        <route edges="3772 -3162 -848 -650 674 -837 -2200 -1882 -1523 1517 1797 1950"/>
    </vehicle>
    <vehicle id="26" depart="33.00">
        <route edges="1499 1771 1935 2171 3091 3799"/>
    </vehicle>
    <vehicle id="27" depart="35.00">
        <route edges="-2447 1767 1357 1415 -523 -338 -123 125 344 365 535 2412 2873 2979 -3764 -2969 2963"/>
    </vehicle>
    <vehicle id="28" depart="36.00">
        <route edges="3131 -3131 -2502 -2206 2202 -2168 -1930 1767 -880 -639 -319 -117 -15 -3 11 728 1029 -1005 -612"/>
    </vehicle>
    <vehicle id="29" depart="37.00">
        <route edges="-3772 -1201 -1027 -698 -11 3 15"/>
    </vehicle>
    <vehicle id="30" depart="38.00">
        <route edges="-1783 -1517 1523 1882 2200 837 -674 650 848 3252 -3773 -1201 1199"/>
    </vehicle>
    <vehicle id="31" depart="40.00">
        <route edges="2185 -2185 2186 2200 -330 -119 117 325 589 1057 2300"/>
    </vehicle>
    <vehicle id="32" depart="41.00">
        <route edges="3439 -1483 -1425 1415 -523 -338 -123 125 344 365 533 1388 1464 3603 -4258"/>
    </vehicle>
    <vehicle id="33" depart="41.00">
        <route edges="-2166 -1483 -1425 1415 -589 -325 -117 119 332 592 650 848 3162 -3772"/>
    </vehicle>
    <vehicle id="34" depart="42.00">
        <route edges="1524 1533 1535 -876 -639 -319 -38 -17 25 210 585 -613 618 867 1919"/>
    </vehicle>
    <vehicle id="35" depart="43.00">
        <route edges="-1388 -533 -365 -344 -125 121 326 -313 -117 119 332 592 650 2724 3920"/>
    </vehicle>
    <vehicle id="36" depart="43.00">
        <route edges="64 -121 125 344 365 535 2412 2873 2979 -3764 -2969 2963 -4474 4494 -4494"/>
    </vehicle>
    <vehicle id="37" depart="46.00">
        <route edges="2766 3497 4050 -589 -325 -117 -15 -3 7 -7"/>
    </vehicle>
    <vehicle id="38" depart="46.00">
        <route edges="1882 2200 -732 -625 623"/>
    </vehicle>
    <vehicle id="39" depart="48.00">
        <route edges="-1363 1373 1431 1526 1891 2110 2206 2494 3835 -3835"/>
    </vehicle>
    <vehicle id="40" depart="48.00">
        <route edges="-4473 -3742 3744 4474 -2963 2969 3764 3769 -4257 -3611 -1464 -1391 2876 3734"/>
    </vehicle>
    <vehicle id="41" depart="48.00">
        <route edges="-3739 3739 -3737 -1404"/>
    </vehicle>
    <vehicle id="42" depart="49.00">
        <route edges="7 -7 3 15 117 325 589 1057 2300 -2300 -1057"/>
    </vehicle>
    <vehicle id="43" depart="50.00">
        <route edges="-1431 1431 1526 1891 2110 2206 2502 3137 3883 -3883"/>
    </vehicle>
    <vehicle id="44" depart="50.00">
        <route edges="613 -585 -210 -25 17 38 319 639 880"/>
    </vehicle>
    <vehicle id="45" depart="50.00">
        <route edges="-3779 3779 -2482 -2185 2186 2200 -330 -119 117 313 -326 -121 123"/>
    </vehicle>
    <vehicle id="46" depart="51.00">
        <route edges="-3907 -3166 -848 -650 674 -837 -2200 -1882 -1523 1517 1797 1944 -2210"/>
    </vehicle>
    <vehicle id="47" depart="52.00">
        <route edges="1447 -1447 -1427 1429 1517 -1517"/>
    </vehicle>
    <vehicle id="48" depart="53.00">
        <route edges="-1526 1524 1533 -1494 1357 1415 -523 -338 -123 125 344 365 535"/>
    </vehicle>
    <vehicle id="49" depart="53.00">
        <route edges="-1391 -569 -365 -344 -125 121 -64 -13"/>
    </vehicle>
    <vehicle id="50" depart="54.00">
        <route edges="-1483 1493 2447 -2278 -1524 1526 1883 -1783 -1769"/>
    </vehicle>
    <vehicle id="51" depart="54.00">
        <route edges="-2185 2186 2200 -330 -119 117 325 589 -589"/>
    </vehicle>
    <vehicle id="52" depart="54.00">
        <route edges="3155 -3155 -2714 -846 -642 -592 -332 -119 117 313 -326 -121 125 344 365 569 1391"/>
    </vehicle>
    <vehicle id="53" depart="55.00">
        <route edges="1464 -1464 -1388 -533 -365 -344 -125 121 -64 116"/>
    </vehicle>
    <vehicle id="54" depart="55.00">
        <route edges="-2453 2449 -2194 -1950 -1942 -1883 1891 2128 -2168 -2166 -3439 -3435 3437 -3437"/>
    </vehicle>
    <vehicle id="55" depart="57.00">
        <route edges="-523 517 -588 -325 -117 119 332"/>
    </vehicle>
    <vehicle id="56" depart="59.00">
        <route edges="-1093 1093 1342 -1011"/>
    </vehicle>
    <vehicle id="57" depart="61.00">
        <route edges="-2171 -1935 -1775 -1501 -1429 1427 1441 2278 -2447 1930 2168"/>
    </vehicle>
    <vehicle id="58" depart="63.00">
        <route edges="-123 121 326 -313 -117 119 332"/>
    </vehicle>
    <vehicle id="59" depart="65.00">
        <route edges="-2120 2128 -2168 -1930 1767 1357 1415 -523 -338 -123 125 344 365 569 2876"/>
    </vehicle>
    <vehicle id="60" depart="66.00">
        <route edges="614 -614 -579 -383 -128 -25 17 38 319 639 876 -876"/>
    </vehicle>
    <vehicle id="61" depart="66.00">
        <route edges="-2149 -614 613 -585 349 -344 -125 123 338 523 -1415 1425"/>
    </vehicle>
    <vehicle id="62" depart="66.00">
        <route edges="2872 2873 -2439 867 2158 2425"/>
    </vehicle>
    <vehicle id="63" depart="68.00">
        <route edges="-123 -19 25 126"/>
    </vehicle>
    <vehicle id="64" depart="68.00">
        <route edges="-1033 -734 -625 639 876 -1535 -1533 -1524 -1431"/>
    </vehicle>
    <vehicle id="65" depart="73.00">
        <route edges="-4257 -3611 -1464 -1388 -533 -365 -344 -125 121 326 -313 -117 119 330 -2200 -2186 -1941"/>
    </vehicle>
    <vehicle id="66" depart="73.00">
        <route edges="-3799 -3091 -2171 2173 2449 -2194 -1950"/>
    </vehicle>
    <vehicle id="67" depart="75.00">
        <route edges="2183 3121 -2482 -2185 2186 2200 -330 -119 -15 -3 11 728 1029 -1005 -612"/>
    </vehicle>
    <vehicle id="68" depart="75.00">
        <route edges="-3439 3439 -1483 1493 2447 -2278 -1524 1532"/>
    </vehicle>
    <vehicle id="69" depart="76.00">
        <route edges="577 608 2149 -1919 2158 2425 2963 -4474"/>
    </vehicle>
    <vehicle id="70" depart="77.00">
        <route edges="-2194 -1950 -1797 -1517 1523 1882 2200 -330 -119 -15 -3 11"/>
    </vehicle>
    <vehicle id="71" depart="79.00">
        <route edges="1526 1883 1942 1950 2194 -2449 2453 -2453"/>
    </vehicle>
    <vehicle id="72" depart="79.00">
        <route edges="1483 -1483 -1425 1415 1057 2300 -2300 -1057"/>
    </vehicle>
    <vehicle id="73" depart="79.00">
        <route edges="2168 -2128 2120 -2120"/>
    </vehicle>
    <vehicle id="74" depart="80.00">
        <route edges="-1359 1359 -876 -639 -319 313 -326 -121 125 344 365 535"/>
    </vehicle>
    <vehicle id="75" depart="80.00">
        <route edges="-1391 -569 -365 -349 -210 138 -333 679 -870 -728"/>
    </vehicle>
    <vehicle id="76" depart="80.00">
        <route edges="585 -613 618 867 2158 2423 2895 3744 4494 -4494"/>
    </vehicle>
    <vehicle id="77" depart="82.00">
        <route edges="1033 -882 880 1357 1425 1483 -3439 -2756 2732"/>
    </vehicle>
    <vehicle id="78" depart="82.00">
        <route edges="64 326 -313 319 625 734 1033"/>
    </vehicle>
    <vehicle id="79" depart="83.00">
        <route edges="383 577 612 1005 1093 1343 -1199 1201 3773 -3252 3328 -3907 -3166"/>
    </vehicle>
    <vehicle id="80" depart="84.00">
        <route edges="3799 -3801 -2171 -1935 -1775 1774 1882 2200 -330 -119 117 313 -326 -121 125 344 365 533 1388 1464 3611 4257 -4257"/>
    </vehicle>
    <vehicle id="81" depart="85.00">
        <route edges="-4505 -4495 -2903 -2423 -2158 -867 -618 613 -585 349 -344 -125 123 338 523 -4050 -3497 -3438 -3435"/>
    </vehicle>
    <vehicle id="82" depart="86.00">
        <route edges="3744 -3744 -2895 2961 4527 -4527"/>
    </vehicle>
    <vehicle id="83" depart="86.00">
        <route edges="1523 1882 2200 -732 -625 623"/>
    </vehicle>
    <vehicle id="84" depart="87.00">
        <route edges="837 -674 642"/>
    </vehicle>
    <vehicle id="85" depart="87.00">
        <route edges="2881 3739 -3737 -1404 -1345 -1011 1005 -1029"/>
    </vehicle>
    <vehicle id="86" depart="91.00">
        <route edges="-2209 -2120 2128 -2168 -1930 1767 1357 1415 -523 -338 -123 -19 25 -25"/>
    </vehicle>
    <vehicle id="87" depart="91.00">
        <route edges="3611 -3611 3603"/>
    </vehicle>
    <vehicle id="88" depart="93.00">
        <route edges="-3121 -2183 2173 2449 -2194 -1950 -1942 -1883 1891 2112 3145 3885"/>
    </vehicle>
    <vehicle id="89" depart="95.00">
        <route edges="-1942 -1883 -1526 1524 1533 1535 -876 882"/>
    </vehicle>
    <vehicle id="90" depart="96.00">
        <route edges="1483 -3439 -2756 2732"/>
    </vehicle>
    <vehicle id="91" depart="96.00">
        <route edges="-3166 3252 -3773 -1201 1199 -1343 1342 1345 1404 3737 -3739 3740 -3740"/>
    </vehicle>
    <vehicle id="92" depart="96.00">
        <route edges="-15 15 117 319 639 880 -1767 1930 2168 -2202 2206 2502 3137 -3137"/>
    </vehicle>
    <vehicle id="93" depart="97.00">
        <route edges="3131 -3131 -2502 -2206 2202 -2168 -1930 1767 -880 -639 625 732 837 -674 650 848 3166 3907"/>
    </vehicle>
    <vehicle id="94" depart="98.00">
        <route edges="-3607 -1464 -1388 -533 -365 -344 -125 121 326 -313 -117 119 330 -2200 -1882 -1774 1775 -1775"/>
    </vehicle>
    <vehicle id="95" depart="100.00">
        <route edges="3800 -3800 -2171 -1935 -1775 1774 1882 2200 -330 -119 117 313 -326 -121 125 344 365 569 2876 3734"/>
    </vehicle>
    <vehicle id="96" depart="100.00">
        <route edges="492 570 -125 121 326 -313 -117 119 332 592 642"/>
    </vehicle>
    <vehicle id="97" depart="102.00">
        <route edges="4527 -4527 -2961 -2423 -2158 -867 -618 613 -585 349 -344 -125 123 338 523 1057 2300"/>
    </vehicle>
    <vehicle id="98" depart="102.00">
        <route edges="-621 -319 -38 -17 25 210 585 -613 618 867 2158 2423 2903 4501 -4501"/>
    </vehicle>
    <vehicle id="99" depart="103.00">
        <route edges="349 -344 -125 121 326 -313 325"/>
    </vehicle>
    <vehicle id="100" depart="103.00">
        <route edges="2732 3435 3439 -1483"/>
    </vehicle>
    <vehicle id="101" depart="103.00">
        <route edges="-1930 2447 -2278 -1441 -1373 -1323"/>
    </vehicle>
    <vehicle id="102" depart="104.00">
        <route edges="-1029 -728 -11 3 15 117 319 639 882 1323"/>
    </vehicle>
    <vehicle id="103" depart="104.00">
        <route edges="-64 -17 25 210 585 -613 614 2149 2421 2893 -3737 -1404"/>
    </vehicle>
    <vehicle id="104" depart="106.00">
        <route edges="-3742 -2895 -2423 -2158 -867 -618 613 -585 349 -344 -125 123 338 523 -1415 -1357 -1767 1930 2168 -2202 -2110"/>
    </vehicle>
    <vehicle id="105" depart="106.00">
        <route edges="-3799 -3091 -2171 -1935 1935"/>
    </vehicle>
    <vehicle id="106" depart="106.00">
        <route edges="867 -867 -618 613 -585 349 -344 -125 123 336 504 597 684 2289 2766"/>
    </vehicle>
    <vehicle id="107" depart="110.00">
        <route edges="3907 -3328 -848 -650 674 -837 -2200 -1882 -1523 1517 -1517"/>
    </vehicle>
    <vehicle id="108" depart="110.00">
        <route edges="-601 601 -585 -210 -25 17 -13 15 119 -119"/>
    </vehicle>
    <vehicle id="109" depart="112.00">
        <route edges="-3761 -2961 -2423 2425 2969 3764 3769 -4257 4257"/>
    </vehicle>
    <vehicle id="110" depart="113.00">
        <route edges="-3769 -2979 -2439 -618 614 -608 612 1005 -1005"/>
    </vehicle>
    <vehicle id="111" depart="113.00">
        <route edges="3769 -4257 -3611 -1464 -1388 -533 -365 -344 -125 123 338 523 -4050 -3497 -3438 -3435 3437 4027 -4027"/>
    </vehicle>
    <vehicle id="112" depart="113.00">
        <route edges="-3772 3773 -3252 -848 -650 674 -837 -2200 -1882 -1523 1499 1769"/>
    </vehicle>
    <vehicle id="113" depart="113.00">
        <route edges="1427 1447 1535 -876 -639 -319 313 -326 -121"/>
    </vehicle>
    <vehicle id="114" depart="116.00">
        <route edges="3799 -3801 -2171 -1935 -1775 1774 1882 2200 -330 -119 117 313 -326 -121 125 344 365 533 1388 1464 3611 -3611"/>
    </vehicle>
    <vehicle id="115" depart="116.00">
        <route edges="-2200 2200 -732 -625 639 -730 -623"/>
    </vehicle>
    <vehicle id="116" depart="117.00">
        <route edges="-3607 -1464 -1388 -533 -365 -344 -125 121 326 -313 -117 119 -119"/>
    </vehicle>
    <vehicle id="117" depart="117.00">
        <route edges="-4258 4257 -3769 -3764 -2969 2963 -4474 -3744 3742 -3742"/>
    </vehicle>
    <vehicle id="118" depart="117.00">
        <route edges="4527 -4527 -3740 3739 -3737 -1404 -1345 -1342 1343 -1199 1201 3773 -3252 3252 -3773"/>
    </vehicle>
    <vehicle id="119" depart="117.00">
        <route edges="3897 -3897 -3145 -2201 2202 -2168 -1930 2447"/>
    </vehicle>
    <vehicle id="120" depart="118.00">
        <route edges="-2201 -2110 -1891 1883 1942 1950 2194"/>
    </vehicle>
    <vehicle id="121" depart="119.00">
        <route edges="-3437 -2732 -2289 -684 -597 -504 361 492 -379 365 569 1391"/>
    </vehicle>
    <vehicle id="122" depart="120.00">
        <route edges="-1930 1930 2168 -2202 -2110"/>
    </vehicle>
    <vehicle id="123" depart="121.00">
        <route edges="-2412 601 -585 -210 -25 -9 11 698 1027 1201 -1201"/>
    </vehicle>
    <vehicle id="124" depart="122.00">
        <route edges="1345 -1345 -1342 1343 -1199 1201 3773 -3252 3166 3907"/>
    </vehicle>
    <vehicle id="125" depart="123.00">
        <route edges="-1425 1425 1493 1930 2168 -2202 2206 2502 3137 3849"/>
    </vehicle>
    <vehicle id="126" depart="124.00">
        <route edges="-614 -579 -383 -128 138 -333 333"/>
    </vehicle>
    <vehicle id="127" depart="124.00">
        <route edges="-1774 -1501 -1429 1427 1447 -1494 1357 1415 -523 505 597 684 2291 -2291"/>
    </vehicle>
    <vehicle id="128" depart="125.00">
        <route edges="-614 -579 -383 -128 -25 17 38 319 639 876 -1535 -1533 -1441"/>
    </vehicle>
    <vehicle id="129" depart="126.00">
        <route edges="-3800 -2171 -1935 -1775 1774 1882 2200 837 -674 642 840 -840"/>
    </vehicle>
    <vehicle id="130" depart="126.00">
        <route edges="-535 -365 -344 -125 121 326 -313 319 625 -625"/>
    </vehicle>
    <vehicle id="131" depart="127.00">
        <route edges="-1033 -734 -625 -319 -38 -17 25 210 585 -613 618 867 2158 2423 2895 3744 4494 -4494"/>
    </vehicle>
    <vehicle id="132" depart="128.00">
        <route edges="621 -621 -319 -38 -17 25 210 585 -613 618 867 2158 2423 2903 4501"/>
    </vehicle>
    <vehicle id="133" depart="129.00">
        <route edges="-3607 -1464 -1388 -533 -365 -344 -125 123 338 523 -1415 -1357 -1767 1930 2168 -2202 2206 2502 3131 -3131"/>
    </vehicle>
    <vehicle id="134" depart="130.00">
        <route edges="-2200 2200 -330 -119 117 313 -326 -121 125 344 -349"/>
    </vehicle>
    <vehicle id="135" depart="133.00">
        <route edges="-612 -577 -383 -128 -25 19 123 338 517 -588"/>
    </vehicle>
    <vehicle id="136" depart="133.00">
        <route edges="-4527 -3740 3739 -3737 -1404 -1345 -1342 1343 -1199 1201 3773 -3252 3252"/>
    </vehicle>
    <vehicle id="137" depart="135.00">
        <route edges="-344 -126 128 383 579 618 867 2158 2423 2895 3742 4469"/>
    </vehicle>
    <vehicle id="138" depart="135.00">
        <route edges="1027 -1027 -698 -11 9 19 125 -570 570"/>
    </vehicle>
    <vehicle id="139" depart="137.00">
        <route edges="-17 19 125 344 365 533 1388 1464 3607 4256"/>
    </vehicle>
    <vehicle id="140" depart="142.00">
        <route edges="-2202 2202 -2168 -1930 1767 1357 1415 -523 -338 -123 125 344 365 569 1391"/>
    </vehicle>
    <vehicle id="141" depart="144.00">
        <route edges="597 -597 -505 517 -588 -325 -117 119 332 592 650 848 3162"/>
    </vehicle>
    <vehicle id="142" depart="145.00">
        <route edges="4501 -4501 -2903 2961 -3740 3739 -3737 -1404 -1345 -1342 1343 -1199 1201 3773 -3252 3328"/>
    </vehicle>
    <vehicle id="143" depart="146.00">
        <route edges="-2453 2449 -2194 -1950 -1797 -1517 -1429 -1363 1359 -1535"/>
    </vehicle>
    <vehicle id="144" depart="147.00">
        <route edges="3252 -3773 3773 -3252 -848 -650 674 -837 -2200"/>
    </vehicle>
    <vehicle id="145" depart="148.00">
        <route edges="-4257 -3611 -1464 -1388 -533 -365 -349 -210 138 -333 356"/>
    </vehicle>
    <vehicle id="146" depart="149.00">
        <route edges="2963 -4474 -3744 -2895 -2423 -2158 -867 -618 -579 -383 -128 -25 17 -13 15 119 330 -2200 -1882 -1523 1517 1783"/>
    </vehicle>
    <vehicle id="147" depart="149.00">
        <route edges="-365 365 535 2412 2873 2979 3769"/>
    </vehicle>
    <vehicle id="148" depart="150.00">
        <route edges="2171 -2171 -1935 -1775 -1501 -1429 1427 1447 -1494 1357 1415 -4050 -3497 3497 4050"/>
    </vehicle>
    <vehicle id="149" depart="151.00">
        <route edges="3639 -3720 -2876 -569 -365 -349 -381 383 577 612 1011 1345 -1345"/>
    </vehicle>
    <vehicle id="150" depart="152.00">
        <route edges="7 333 -138 -25"/>
    </vehicle>
    <vehicle id="151" depart="153.00">
        <route edges="-621 621"/>
    </vehicle>
    <vehicle id="152" depart="154.00">
        <route edges="1483 -1483 -1425 -1357 -880 -639 -319"/>
    </vehicle>
    <vehicle id="153" depart="154.00">
        <route edges="-1883 -1526 1524 1533 1535 -876 -639 -319 -117 -15 -3 3"/>
    </vehicle>
    <vehicle id="154" depart="154.00">
        <route edges="-1883 -1526 1524 1533 1535 -876 -639 -319 -117 -15 -3 7 333 -138"/>
    </vehicle>
    <vehicle id="155" depart="154.00">
        <route edges="-579 -383 -128 126 344"/>
    </vehicle>
    <vehicle id="156" depart="156.00">
        <route edges="-1447 -1427 1429 1523 1882 2200 837 -674 642 846 2714 3151"/>
    </vehicle>
    <vehicle id="157" depart="156.00">
        <route edges="-1523 1517 1783 -1883"/>
    </vehicle>
    <vehicle id="158" depart="157.00">
        <route edges="2423 -2423 2425 2969 3764 3769 -4257 4258 -3603"/>
    </vehicle>
    <vehicle id="159" depart="157.00">
        <route edges="2979 -2979 -2873 -2412 601 -585 -210 -25 17 38 319 639 -730"/>
    </vehicle>
    <vehicle id="160" depart="158.00">
        <route edges="-1533 -1524 1526 1883 -1783 -1517"/>
    </vehicle>
    <vehicle id="161" depart="158.00">
        <route edges="3119 -3119 -2453 2449 -2194 -1950 -1942 -1883 -1526 1526"/>
    </vehicle>
    <vehicle id="162" depart="159.00">
        <route edges="344 -344 -125 121 326"/>
    </vehicle>
    <vehicle id="163" depart="162.00">
        <route edges="-2128 -1891 -1526 1524 1533 1535 -876 -639 -319 -117 -15 -3 11 728 1029 -1005 1011 1345"/>
    </vehicle>
    <vehicle id="164" depart="165.00">
        <route edges="1359 -876 -639 -319 -38 -17 25 210 585 -601 3719 -3719"/>
    </vehicle>
    <vehicle id="165" depart="165.00">
        <route edges="11 -11 9 19 125 344 365 533 1388 1464 3603"/>
    </vehicle>
    <vehicle id="166" depart="166.00">
        <route edges="-3 3 15 119 330 -2200 -1882 -1774 1775 1935 2173 2453 3095 -3095"/>
    </vehicle>
    <vehicle id="167" depart="166.00">
        <route edges="-1447 1441 2278 -2447 -1493 1483 -3439 -3435"/>
    </vehicle>
    <vehicle id="168" depart="166.00">
        <route edges="1517 -1517 1523 1882 2200 -330 -119 117 313 -326 -121 125 344 365 533 1388 1464 3603 -3603"/>
    </vehicle>
    <vehicle id="169" depart="167.00">
        <route edges="585 -613 614 -608 612 1005 1093 -1093"/>
    </vehicle>
    <vehicle id="170" depart="168.00">
        <route edges="2210 -1944 -1797 -1517 1523 1882 2200 -330 -119 -15 13"/>
    </vehicle>
    <vehicle id="171" depart="168.00">
        <route edges="2893 -2893 -2421 -1919 -867 2439 -2873 -2412"/>
    </vehicle>
    <vehicle id="172" depart="169.00">
        <route edges="-613 -579 -383 -128 -25 17 38 319 639 876 -1535 -1447 1447"/>
    </vehicle>
    <vehicle id="173" depart="169.00">
        <route edges="-3719 -535 -365 -344 -125 123 338 523 -1415 -1357 -1767 1930 2168 -2202 2206 2494 3825 -3825"/>
    </vehicle>
    <vehicle id="174" depart="170.00">
        <route edges="2200 -732 -625 639 880 -1767 1930 2168 -2202 2206 2502"/>
    </vehicle>
    <vehicle id="175" depart="171.00">
        <route edges="4031 -4031 -3437 3435 3439 -1483 -1425 -1357 -880 882 -1033"/>
    </vehicle>
    <vehicle id="176" depart="172.00">
        <route edges="3837 -3837 -3131 -2502 -2206 2202 -2168 -1930 1767 1357 1415 -523 -338 -123 -19 25 128 381"/>
    </vehicle>
    <vehicle id="177" depart="172.00">
        <route edges="-38 64 -121 123 336"/>
    </vehicle>
    <vehicle id="178" depart="173.00">
        <route edges="-1533 1533 1535 -876 -639 625 732 837 -674 650 848 3252 -3773 3772 -3162"/>
    </vehicle>
    <vehicle id="179" depart="173.00">
        <route edges="2201 -2112 -1891 1883 -1783 -1517 1523 1882"/>
    </vehicle>
    <vehicle id="180" depart="174.00">
        <route edges="-2453 2449 -2194 -1950 -1942 -1883 1891 2128 -2168 -2166 -3439 -3435 3437"/>
    </vehicle>
    <vehicle id="181" depart="174.00">
        <route edges="-679 -7 3 15 117 319 639 876 -1535 -1533 -1524 1526 -1526"/>
    </vehicle>
    <vehicle id="182" depart="176.00">
        <route edges="-319 319 639 876 -1359 1363 1429 1499 -1499"/>
    </vehicle>
    <vehicle id="183" depart="178.00">
        <route edges="-882 880 1357 1415 -523 -338 336 361"/>
    </vehicle>
    <vehicle id="184" depart="179.00">
        <route edges="2453 -2453 2449 -2194 -1950 -1942 -1883 1891 2110 -2110"/>
    </vehicle>
    <vehicle id="185" depart="180.00">
        <route edges="1404 3737 -2893 -2421 -2149 -614 613 -585 349 -344 -125 123 338 523 -1415 -1357 -1767 1930 2168 -2128 2120 -2120"/>
    </vehicle>
    <vehicle id="186" depart="180.00">
        <route edges="-2183 2171"/>
    </vehicle>
    <vehicle id="187" depart="182.00">
        <route edges="2209 -2209 -2120 2110 2206 -2206"/>
    </vehicle>
    <vehicle id="188" depart="183.00">
        <route edges="379 -492 -361 504 597 686"/>
    </vehicle>
    <vehicle id="189" depart="183.00">
        <route edges="-3847 -3131 -2502 -2206 2202 -2168 -1930 1930"/>
    </vehicle>
    <vehicle id="190" depart="183.00">
        <route edges="-2202 -2110 -1891 1883 1942 1950 2194 -2449 2449"/>
    </vehicle>
    <vehicle id="191" depart="184.00">
        <route edges="3814 -3814 -3119 -2453 2449 -2194 -1950 -1942 -1883 -1526 1524 1533 -1494 1357 1415 1057"/>
    </vehicle>
    <vehicle id="192" depart="185.00">
        <route edges="1201 3772 -3162 -848 -650 674 -837 -2200 -1882 -1774 1775 1935 2173 2453 3093"/>
    </vehicle>
    <vehicle id="193" depart="186.00">
        <route edges="623 730 -639 -319 -117 -15 -3 11 728 1029 1093 1342 -1011"/>
    </vehicle>
    <vehicle id="194" depart="186.00">
        <route edges="-848 -650 674 -837 -2200 -1882 -1774 1775 1935 2171 3800"/>
    </vehicle>
    <vehicle id="195" depart="190.00">
        <route edges="-1944 -1797 -1517 1523 1882 2200 -330 -119 -15 -3 11 728 1029 -1005 1011 1345 1404 3737 -3739 3740 -3740"/>
    </vehicle>
    <vehicle id="196" depart="191.00">
        <route edges="3611 -3611 3607 -3607"/>
    </vehicle>
    <vehicle id="197" depart="193.00">
        <route edges="1499 1769 1783 -1883 1891 2110 2206 2502 3137 3853 -3853"/>
    </vehicle>
    <vehicle id="198" depart="193.00">
        <route edges="-4527 -3740 3739 -3737 -1404 -1345 -1342 1343 -1199 1201 3772 -3162 -848 -650 674 2285 -2285"/>
    </vehicle>
    <vehicle id="199" depart="195.00">
        <route edges="-846 -642 -592 -332 -119 -15 13 -17 25 210 585 -601 2412 2873 2979 -3764 -2969 2969 3764"/>
    </vehicle>
    <vehicle id="200" depart="196.00">
        <route edges="-1941 -1773 -1501 1517 1797 1950 2194"/>
    </vehicle>
    <vehicle id="201" depart="197.00">
        <route edges="2188 -2006 -1942 -1883 -1526 -1431 -1427"/>
    </vehicle>
    <vehicle id="202" depart="197.00">
        <route edges="-1441 1447 1535 -876 -639 -319 -38 -17 25 128 383 -383"/>
    </vehicle>
    <vehicle id="203" depart="202.00">
        <route edges="2194 -2449 -2173 -1935 -1775 1774 1882 2200 -330 -119 117 313 -326 -121 125 344 365 533 1388 1464 3611 4257 4539 -4539"/>
    </vehicle>
    <vehicle id="204" depart="203.00">
        <route edges="1798 1941 2186 2200 -330 -119 -15 -3 11 728 1029 1093"/>
    </vehicle>
    <vehicle id="205" depart="203.00">
        <route edges="-3122 3121 -2482 -2185 2186 2200 -330 -119 117 313 -326 -121 125 344 365 533 1388 1464 3607 -3607"/>
    </vehicle>
    <vehicle id="206" depart="205.00">
        <route edges="1767 -880 -639 625 732 -330 330"/>
    </vehicle>
    <vehicle id="207" depart="208.00">
        <route edges="-3121 -2183 2171 3091"/>
    </vehicle>
    <vehicle id="208" depart="209.00">
        <route edges="-2128 2128 -2168 -1930 1767 1357 1415 -523 -338 -123 125 344 365 535 2412 2873 2979 -3764 -2969 2963 -4474 4474 -2963"/>
    </vehicle>
    <vehicle id="209" depart="209.00">
        <route edges="2425 -2425 -2158 1919 -2149 -608 612 1005 1093 1343 -1199 1201 3772 -3162 -848 2724 3920 -3920"/>
    </vehicle>
    <vehicle id="210" depart="209.00">
        <route edges="-2185 2186 2200 -330 -119 117 313 -326 -121 125 344 365 533 1388 1464 3607 4256"/>
    </vehicle>
    <vehicle id="211" depart="210.00">
        <route edges="-2872 2872 2873 -2439 867 2158 2423 2903 4495"/>
    </vehicle>
    <vehicle id="212" depart="210.00">
        <route edges="-2421 -2149 -608 608"/>
    </vehicle>
    <vehicle id="213" depart="210.00">
        <route edges="-3162 -848 -650 -592 -332"/>
    </vehicle>
    <vehicle id="214" depart="211.00">
        <route edges="1797 1950 2194 -2449 -2173 2171 3091 3787"/>
    </vehicle>
    <vehicle id="215" depart="211.00">