<?xml version="1.0" encoding="UTF-8"?>

<!-- generated on 2023-04-29 21:53:27 by Eclipse SUMO duarouter Version 1.16.0
<configuration xmlns:xsi="http://www.w3.org/2001/XMLSchema-instance" xsi:noNamespaceSchemaLocation="http://sumo.dlr.de/xsd/duarouterConfiguration.xsd">

    <input>
        <net-file value="000/../configurations/maps/4corners_neighborhoods.net.xml"/>
        <route-files value="000/../configurations/Rounds/4corners_neighborhoods.net.xml-test-4/Trips_File.rou.xml"/>
    </input>

    <output>
        <output-file value="000/Trips_File_000.rou.xml"/>
        <exit-times value="False"/>
    </output>

    <processing>
        <max-alternatives value="5"/>
        <with-taz value="False"/>
        <routing-algorithm value="dijkstra"/>
        <weights.expand value="true"/>
        <gawron.beta value="0.9"/>
        <gawron.a value="0.5"/>
        <keep-all-routes value="False"/>
        <logit.beta value="0.15"/>
        <logit.gamma value="1.0"/>
    </processing>

    <time>
        <begin value="0"/>
    </time>

    <report>
        <verbose value="False"/>
        <no-warnings value="False"/>
        <ignore-errors value="False"/>
        <no-step-log value="true"/>
    </report>

    <random_number>
        <random value="False"/>
    </random_number>

</configuration>
-->

<routes xmlns:xsi="http://www.w3.org/2001/XMLSchema-instance" xsi:noNamespaceSchemaLocation="http://sumo.dlr.de/xsd/routes_file.xsd">
    <vehicle id="2" depart="0.00">
        <route edges="597602756#0 597602756#1 597602756#2 597602756#4 -44884821#12 229169572#6 422688975#0 918280984"/>
    </vehicle>
    <vehicle id="3" depart="2.00">
        <route edges="918280985 422688971#1 422685653 15336469#0 15374898#0-AddedOnRampEdge 15374898#0 15374898#0-AddedOffRampEdge"/>
    </vehicle>
    <vehicle id="4" depart="3.00">
        <route edges="597602753#0 597602753#2 597602753#3 597602753#10 -105681660#20"/>
    </vehicle>
    <vehicle id="5" depart="3.00">
        <route edges="422688973 261136891#3 -15382203#1 928260165 -15456086#2 -597602753#13 -597602753#9 -597602753#2 -597602753#1"/>
    </vehicle>
    <vehicle id="6" depart="4.00">
        <route edges="597602753#0 597602753#2 597602753#3 597602753#10 961870460 -597602756#9 -44884008#4 -44884008#3 -44884008#2 -44884008#1 422685677#0 422685680#0 422685680#1 15334555#0 15374898#0-AddedOnRampEdge 15374898#0 15374898#0-AddedOffRampEdge"/>
    </vehicle>
    <vehicle id="7" depart="7.00">
        <route edges="918280985 422688971#1 422685653 45673101#0 -318908683#1"/>
    </vehicle>
    <vehicle id="8" depart="8.00">
        <route edges="105681660#12 961870460 -597602756#9 -44884008#4 -44884008#3 -44884008#2 -44884008#1 -422685678#1 -422685673 -422685675#1 -422685672 -422685674 260998164#0"/>
    </vehicle>
    <vehicle id="9" depart="8.00">
        <route edges="918280985 422688971#1 422685653 15336469#0 15374898#0-AddedOnRampEdge 15374898#0 15374898#0-AddedOffRampEdge"/>
    </vehicle>
    <vehicle id="10" depart="8.00">
        <route edges="-260998164#3 422685674 422685672 422685675#0 422685673 422685678#0 422685677#0 422685680#0 422685680#1 229169572#1 229169572#5 229169572#6 422688975#0 422688976#1"/>
    </vehicle>
    <vehicle id="11" depart="12.00">
        <route edges="597602756#0 597602756#1 597602756#2 597602756#4 -44884821#12 229169572#6 422688975#0 422688976#1"/>
    </vehicle>
    <vehicle id="12" depart="12.00">
        <route edges="-260998164#3 422685674 422685672 422685675#0 422685673 422685678#0 422685677#0 422685680#0 422685680#1 229169572#1 229169572#5 229169572#6 422688975#0 918280984"/>
    </vehicle>
    <vehicle id="13" depart="12.00">
        <route edges="422685671#2 422685679#0 229169572#1 229169572#5 44884821#0 597602755#0 -105681660#20"/>
    </vehicle>
    <vehicle id="14" depart="12.00">
        <route edges="-260998164#3 422685674 422685672 422685675#0 422685673 422685678#0 422685677#0 422685680#0 422685680#1 -318908683#1"/>
    </vehicle>
    <vehicle id="15" depart="13.00">
        <route edges="105681660#12 961870460 -597602756#9 -597602756#3 -597602756#1 -597602756#0"/>
    </vehicle>
    <vehicle id="16" depart="16.00">
        <route edges="105681660#12 961870460 -597602756#9 -44884008#4 -44884008#3 -44884008#2 -44884008#1 -422685678#1 -422685673 -422685675#1 -422685672 -422685674 260998164#0"/>
    </vehicle>
    <vehicle id="17" depart="16.00">
        <route edges="918280985 261136891#3 -15382203#1 928260165 -15456086#2 -105681660#20"/>
    </vehicle>
    <vehicle id="18" depart="17.00">
        <route edges="597602756#0 597602756#1 597602756#2 -44884008#4 -44884008#3 -44884008#2 -44884008#1 422685677#0 422685680#0 422685680#1 -318908683#1"/>
    </vehicle>
    <vehicle id="19" depart="18.00">
        <route edges="597602756#0 597602756#1 597602756#2 597602756#4 -44884821#12 229169572#6 422688975#0 918280984"/>
    </vehicle>
    <vehicle id="20" depart="19.00">
        <route edges="422688973 422688971#1 422685653 45673101#0 -318908683#1"/>
    </vehicle>
    <vehicle id="21" depart="20.00">
        <route edges="597602753#0 597602753#2 597602753#3 597602753#10 961870460 -597602756#9 -44884008#4 -44884008#3 -44884008#2 -44884008#1 422685677#0 422685680#0 422685680#1 15334555#0 15374898#0-AddedOnRampEdge 15374898#0 15374898#0-AddedOffRampEdge"/>
    </vehicle>
    <vehicle id="22" depart="20.00">
        <route edges="597602756#0 597602756#1 597602756#2 597602756#4 597602755#0 -597602753#13 -597602753#9 -597602753#2 -597602753#1"/>
    </vehicle>
    <vehicle id="23" depart="21.00">
        <route edges="918280985 261136891#3 -15382203#1 928260165 -15456086#2 -597602753#13 -597602753#9 -597602753#2 -597602753#1"/>
    </vehicle>
    <vehicle id="24" depart="23.00">
        <route edges="422688973 261136891#3 -15382203#1 928260165 -15456086#2 -597602753#13 -597602753#9 -597602753#2 -597602753#1"/>
    </vehicle>
    <vehicle id="25" depart="27.00">
        <route edges="597602756#0 597602756#1 597602756#2 597602756#4 -44884821#12 229169572#6 422688975#0 422688976#1"/>
    </vehicle>
    <vehicle id="26" depart="29.00">
        <route edges="422685671#2 422685679#0 229169572#1 229169572#5 229169572#6 422688975#0 422688976#1"/>
    </vehicle>
    <vehicle id="27" depart="30.00">
        <route edges="318908683#0 229169572#1 229169572#5 44884821#0 597602755#0 -597602753#13 -597602753#9 -597602753#2 -597602753#1"/>
    </vehicle>
    <vehicle id="28" depart="30.00">
        <route edges="-260998164#3 422685674 422685672 422685675#0 422685673 422685678#0 422685677#0 422685680#0 422685680#1 -318908683#1"/>
    </vehicle>
    <vehicle id="29" depart="32.00">
        <route edges="-260998164#3 422685674 422685672 422685675#0 422685673 422685678#0 422685677#0 422685680#0 422685680#1 229169572#1 229169572#5 44884821#0 597602755#0 -105681660#20"/>
    </vehicle>
    <vehicle id="30" depart="35.00">
        <route edges="105681660#12 961870460 -597602756#9 -44884008#4 -44884008#3 -44884008#2 -44884008#1 422685677#0 422685680#0 422685680#1 -318908683#1"/>
    </vehicle>
    <vehicle id="31" depart="36.00">
        <route edges="422688973 261136891#3 -15382203#1 928260165 -15456086#2 -597602753#13 -597602753#9 -597602753#2 -597602753#1"/>
    </vehicle>
    <vehicle id="32" depart="38.00">
        <route edges="-260998164#3 422685674 422685672 422685675#0 422685673 422685678#0 422685677#0 422685680#0 422685680#1 229169572#1 229169572#5 44884821#0 597602755#0 -597602753#13 -597602753#9 -597602753#2 -597602753#1"/>
    </vehicle>
    <vehicle id="33" depart="41.00">
        <route edges="422685671#2 422685679#0 229169572#1 229169572#5 44884821#0 597602755#0 -597602753#13 -597602753#9 -597602753#2 -597602753#1"/>
    </vehicle>
    <vehicle id="34" depart="43.00">
        <route edges="422688973 261136891#3 -15382203#1 928260165 -15456086#2 -105681660#20"/>
    </vehicle>
    <vehicle id="35" depart="43.00">
        <route edges="422688973 422688971#1 422685653 45673101#0 -318908683#1"/>
    </vehicle>
    <vehicle id="36" depart="44.00">
        <route edges="105681660#12 -597602753#13 -597602753#9 -597602753#2 -597602753#1"/>
    </vehicle>
    <vehicle id="37" depart="45.00">
        <route edges="918280985 261136891#3 -15382203#1 928260165 -15456086#2 -597602753#13 -597602753#9 -597602753#2 -597602753#1"/>
    </vehicle>
    <vehicle id="38" depart="46.00">
        <route edges="422688973 422688971#1 422685653 45673101#0 229169572#1 229169572#5 44884821#0 -597602756#9 -597602756#3 -597602756#1 -597602756#0"/>
    </vehicle>
    <vehicle id="39" depart="48.00">
        <route edges="918280985 422688971#1 422685653 15336469#0 15374898#0-AddedOnRampEdge 15374898#0 15374898#0-AddedOffRampEdge"/>
    </vehicle>
    <vehicle id="40" depart="51.00">
        <route edges="318908683#0 229169572#1 229169572#5 44884821#0 597602755#0 -105681660#20"/>
    </vehicle>
    <vehicle id="41" depart="51.00">
        <route edges="-260998164#3 422685674 422685672 422685675#0 422685673 422685678#0 422685677#0 422685680#0 422685680#1 229169572#1 229169572#5 229169572#6 422688975#0 918280984"/>
    </vehicle>
    <vehicle id="42" depart="52.00">
        <route edges="597602756#0 -15420484#6 -15420484#4 -15420484#3 -15420484#2 -15420484#1 -15420484#0 260998164#0"/>
    </vehicle>
    <vehicle id="43" depart="52.00">
        <route edges="422688973 261136891#3 -15382203#1 928260165 -15456086#2 -105681660#20"/>
    </vehicle>
    <vehicle id="44" depart="52.00">
        <route edges="318908683#0 229169572#1 229169572#5 44884821#0 597602755#0 -105681660#20"/>
    </vehicle>
    <vehicle id="45" depart="53.00">
        <route edges="422688973 422688971#1 422685653 45673101#0 314681894#0 422685676 -422685678#1 -422685673 -422685675#1 -422685672 -422685674 260998164#0"/>
    </vehicle>
    <vehicle id="46" depart="55.00">
        <route edges="105681660#12 961870460 -597602756#9 -44884008#4 -44884008#3 -44884008#2 -44884008#1 -422685678#1 -422685673 -422685675#1 -422685672 -422685674 260998164#0"/>
    </vehicle>
    <vehicle id="47" depart="56.00">
        <route edges="-260998164#3 15420484#0 15420484#1 15420484#2 15420484#3 15420484#4 15420484#5 -597602756#0"/>
    </vehicle>
    <vehicle id="48" depart="59.00">
        <route edges="597602753#0 597602753#2 597602753#3 597602753#10 961870460 -597602756#9 -597602756#3 -597602756#1 -597602756#0"/>
    </vehicle>
    <vehicle id="49" depart="59.00">
        <route edges="597602753#0 597602753#2 597602753#3 597602753#10 961870460 -44884821#12 229169572#6 422688975#0 918280984"/>
    </vehicle>
    <vehicle id="50" depart="60.00">
        <route edges="-260998164#3 422685674 422685672 422685675#0 422685673 422685678#0 422685677#0 422685680#0 422685680#1 15334555#0 15374898#0-AddedOnRampEdge 15374898#0 15374898#0-AddedOffRampEdge"/>
    </vehicle>
    <vehicle id="51" depart="61.00">
        <route edges="422688973 422688971#1 422685653 45673101#0 314681894#0 422685676 -422685678#1 -422685673 -422685675#1 -422685672 -422685674 260998164#0"/>
    </vehicle>
    <vehicle id="52" depart="62.00">
        <route edges="318908683#0 229169572#1 229169572#5 44884821#0 597602755#0 -597602753#13 -597602753#9 -597602753#2 -597602753#1"/>
    </vehicle>
    <vehicle id="53" depart="63.00">
        <route edges="422685671#2 422685679#0 229169572#1 229169572#5 44884821#0 -597602756#9 -597602756#3 -597602756#1 -597602756#0"/>
    </vehicle>
    <vehicle id="54" depart="64.00">
        <route edges="-260998164#3 422685674 422685672 422685675#0 422685673 422685678#0 422685677#0 422685680#0 422685680#1 15334555#0 15374898#0-AddedOnRampEdge 15374898#0 15374898#0-AddedOffRampEdge"/>
    </vehicle>
    <vehicle id="55" depart="66.00">
        <route edges="318908683#0 229169572#1 229169572#5 44884821#0 597602755#0 -105681660#20"/>
    </vehicle>
    <vehicle id="56" depart="68.00">
        <route edges="105681660#12 15456086#0 15456086#3 -45672404 15382203#0 261136889#0 918280984"/>
    </vehicle>
    <vehicle id="57" depart="69.00">
        <route edges="422685671#2 422685679#0 229169572#1 229169572#5 229169572#6 422688975#0 918280984"/>
    </vehicle>
    <vehicle id="58" depart="70.00">
        <route edges="-260998164#3 422685674 422685672 422685675#0 422685673 422685678#0 422685677#0 422685680#0 422685680#1 229169572#1 229169572#5 229169572#6 422688975#0 918280984"/>
    </vehicle>
    <vehicle id="59" depart="71.00">
        <route edges="105681660#12 961870460 -44884821#12 229169572#6 422688975#0 422688976#1"/>
    </vehicle>
    <vehicle id="60" depart="71.00">
        <route edges="318908683#0 229169572#1 229169572#5 44884821#0 -597602756#9 -597602756#3 -597602756#1 -597602756#0"/>
    </vehicle>
    <vehicle id="61" depart="72.00">
        <route edges="422685671#2 422685679#0 229169572#1 229169572#5 44884821#0 -597602756#9 -597602756#3 -597602756#1 -597602756#0"/>
    </vehicle>
    <vehicle id="62" depart="72.00">
        <route edges="422685671#2 422685679#0 229169572#1 229169572#5 44884821#0 597602755#0 -597602753#13 -597602753#9 -597602753#2 -597602753#1"/>
    </vehicle>
    <vehicle id="63" depart="72.00">
        <route edges="918280985 422688971#1 422685653 15336469#0 15374898#0-AddedOnRampEdge 15374898#0 15374898#0-AddedOffRampEdge"/>
    </vehicle>
    <vehicle id="64" depart="73.00">
        <route edges="-260998164#3 15420484#0 15420484#1 15420484#2 15420484#3 15420484#4 15420484#5 -597602756#0"/>
    </vehicle>
    <vehicle id="65" depart="73.00">
        <route edges="105681660#12 961870460 -44884821#12 229169572#6 422688975#0 422688976#1"/>
    </vehicle>
    <vehicle id="66" depart="75.00">
        <route edges="422688973 261136891#3 -15382203#1 928260165 -15456086#2 -597602753#13 -597602753#9 -597602753#2 -597602753#1"/>
    </vehicle>
    <vehicle id="67" depart="75.00">
        <route edges="318908683#0 229169572#1 229169572#5 44884821#0 597602755#0 -105681660#20"/>
    </vehicle>
    <vehicle id="68" depart="76.00">
        <route edges="318908683#0 229169572#1 229169572#5 44884821#0 -597602756#9 -597602756#3 -597602756#1 -597602756#0"/>
    </vehicle>
    <vehicle id="69" depart="76.00">
        <route edges="597602753#0 597602753#2 597602753#3 597602753#10 961870460 -597602756#9 -44884008#4 -44884008#3 -44884008#2 -44884008#1 422685677#0 422685680#0 422685680#1 15334555#0 15374898#0-AddedOnRampEdge 15374898#0 15374898#0-AddedOffRampEdge"/>
    </vehicle>
    <vehicle id="70" depart="76.00">
        <route edges="422688973 422688971#1 422685653 45673101#0 -318908683#1"/>
    </vehicle>
    <vehicle id="71" depart="78.00">
        <route edges="918280985 422688971#1 422685653 45673101#0 314681894#0 422685676 -422685678#1 -422685673 -422685675#1 -422685672 -422685674 260998164#0"/>
    </vehicle>
    <vehicle id="72" depart="78.00">
        <route edges="318908683#0 314681894#0 422685676 -422685678#1 -422685673 -422685675#1 -422685672 -422685674 260998164#0"/>
    </vehicle>
    <vehicle id="73" depart="81.00">
        <route edges="-260998164#3 422685674 422685672 422685675#0 422685673 422685678#0 422685677#0 422685680#0 422685680#1 229169572#1 229169572#5 44884821#0 597602755#0 -105681660#20"/>
    </vehicle>
    <vehicle id="74" depart="82.00">
        <route edges="318908683#0 229169572#1 229169572#5 229169572#6 422688975#0 422688976#1"/>
    </vehicle>
    <vehicle id="75" depart="83.00">
        <route edges="918280985 422688971#1 422685653 15336469#0 15374898#0-AddedOnRampEdge 15374898#0 15374898#0-AddedOffRampEdge"/>
    </vehicle>
    <vehicle id="76" depart="85.00">
        <route edges="422688973 261136891#3 -15382203#1 928260165 -15456086#2 -597602753#13 -597602753#9 -597602753#2 -597602753#1"/>
    </vehicle>
    <vehicle id="77" depart="86.00">
        <route edges="918280985 261136891#3 -15382203#1 928260165 -15456086#2 -597602753#13 -597602753#9 -597602753#2 -597602753#1"/>
    </vehicle>
    <vehicle id="78" depart="87.00">
        <route edges="422685671#2 422685679#0 229169572#1 229169572#5 44884821#0 597602755#0 -597602753#13 -597602753#9 -597602753#2 -597602753#1"/>
    </vehicle>
    <vehicle id="79" depart="88.00">
        <route edges="918280985 261136891#3 -15382203#1 928260165 -15456086#2 -105681660#20"/>
    </vehicle>
    <vehicle id="80" depart="88.00">
        <route edges="422685671#2 422685679#0 229169572#1 229169572#5 44884821#0 597602755#0 -105681660#20"/>
    </vehicle>
    <vehicle id="81" depart="88.00">
        <route edges="918280985 422688971#1 422685653 45673101#0 -318908683#1"/>
    </vehicle>
    <vehicle id="82" depart="89.00">
        <route edges="105681660#12 -597602753#13 -597602753#9 -597602753#2 -597602753#1"/>
    </vehicle>
    <vehicle id="83" depart="90.00">
        <route edges="-260998164#3 422685674 422685672 422685675#0 422685673 422685678#0 422685677#0 422685680#0 422685680#1 229169572#1 229169572#5 44884821#0 597602755#0 -597602753#13 -597602753#9 -597602753#2 -597602753#1"/>
    </vehicle>
    <vehicle id="84" depart="91.00">
        <route edges="105681660#12 961870460 -597602756#9 -44884008#4 -44884008#3 -44884008#2 -44884008#1 422685677#0 422685680#0 422685680#1 15334555#0 15374898#0-AddedOnRampEdge 15374898#0 15374898#0-AddedOffRampEdge"/>
    </vehicle>
    <vehicle id="85" depart="91.00">
        <route edges="918280985 261136891#3 -15382203#1 928260165 -15456086#2 -105681660#20"/>
    </vehicle>
    <vehicle id="86" depart="92.00">
        <route edges="422685671#2 422685679#0 229169572#1 229169572#5 229169572#6 422688975#0 422688976#1"/>
    </vehicle>
    <vehicle id="87" depart="94.00">
        <route edges="597602753#0 597602753#2 597602753#3 597602753#10 961870460 -44884821#12 229169572#6 422688975#0 918280984"/>
    </vehicle>
    <vehicle id="88" depart="96.00">
        <route edges="105681660#12 15456086#0 15456086#3 -45672404 15382203#0 261136889#0 918280984"/>
    </vehicle>
    <vehicle id="89" depart="97.00">
        <route edges="422688973 422688971#1 422685653 45673101#0 314681894#0 422685676 -422685678#1 -422685673 -422685675#1 -422685672 -422685674 260998164#0"/>
    </vehicle>
    <vehicle id="90" depart="100.00">
        <route edges="422688973 261136891#3 -15382203#1 928260165 -15456086#2 -597602753#13 -597602753#9 -597602753#2 -597602753#1"/>
    </vehicle>
    <vehicle id="91" depart="102.00">
        <route edges="422685671#2 422685679#0 229169572#1 229169572#5 44884821#0 597602755#0 -597602753#13 -597602753#9 -597602753#2 -597602753#1"/>
    </vehicle>
    <vehicle id="92" depart="103.00">
        <route edges="-260998164#3 422685674 422685672 422685675#0 422685673 422685678#0 422685677#0 422685680#0 422685680#1 15334555#0 15374898#0-AddedOnRampEdge 15374898#0 15374898#0-AddedOffRampEdge"/>
    </vehicle>
    <vehicle id="93" depart="103.00">
        <route edges="918280985 422688971#1 422685653 45673101#0 229169572#1 229169572#5 44884821#0 -597602756#9 -597602756#3 -597602756#1 -597602756#0"/>
    </vehicle>
    <vehicle id="94" depart="107.00">
        <route edges="105681660#12 961870460 -597602756#9 -44884008#4 -44884008#3 -44884008#2 -44884008#1 422685677#0 422685680#0 422685680#1 -318908683#1"/>
    </vehicle>
    <vehicle id="95" depart="107.00">
        <route edges="-260998164#3 422685674 422685672 422685675#0 422685673 422685678#0 422685677#0 422685680#0 422685680#1 229169572#1 229169572#5 229169572#6 422688975#0 422688976#1"/>
    </vehicle>
    <vehicle id="96" depart="108.00">
        <route edges="318908683#0 229169572#1 229169572#5 229169572#6 422688975#0 422688976#1"/>
    </vehicle>
    <vehicle id="97" depart="109.00">
        <route edges="918280985 261136891#3 -15382203#1 928260165 -15456086#2 -597602753#13 -597602753#9 -597602753#2 -597602753#1"/>
    </vehicle>
    <vehicle id="98" depart="110.00">
        <route edges="105681660#12 961870460 -597602756#9 -44884008#4 -44884008#3 -44884008#2 -44884008#1 -422685678#1 -422685673 -422685675#1 -422685672 -422685674 260998164#0"/>
    </vehicle>
    <vehicle id="99" depart="110.00">
        <route edges="597602756#0 597602756#1 597602756#2 597602756#4 -44884821#12 229169572#6 422688975#0 422688976#1"/>
    </vehicle>
    <vehicle id="100" depart="111.00">
        <route edges="918280985 422688971#1 422685653 45673101#0 314681894#0 422685676 -422685678#1 -422685673 -422685675#1 -422685672 -422685674 260998164#0"/>
    </vehicle>
    <vehicle id="101" depart="111.00">
        <route edges="597602753#0 597602753#2 597602753#3 597602753#10 961870460 -597602756#9 -597602756#3 -597602756#1 -597602756#0"/>
    </vehicle>
    <vehicle id="102" depart="111.00">
        <route edges="597602756#0 597602756#1 597602756#2 -44884008#4 -44884008#3 -44884008#2 -44884008#1 422685677#0 422685680#0 422685680#1 -318908683#1"/>
    </vehicle>
    <vehicle id="103" depart="112.00">
        <route edges="597602753#0 597602753#2 597602753#3 597602753#10 961870460 -44884821#12 229169572#6 422688975#0 422688976#1"/>
    </vehicle>
    <vehicle id="104" depart="112.00">
        <route edges="422688973 422688971#1 422685653 45673101#0 -318908683#1"/>
    </vehicle>
    <vehicle id="105" depart="113.00">
        <route edges="918280985 422688971#1 422685653 45673101#0 229169572#1 229169572#5 44884821#0 -597602756#9 -597602756#3 -597602756#1 -597602756#0"/>
    </vehicle>
    <vehicle id="106" depart="115.00">
        <route edges="422688973 422688971#1 422685653 45673101#0 229169572#1 229169572#5 44884821#0 -597602756#9 -597602756#3 -597602756#1 -597602756#0"/>
    </vehicle>
    <vehicle id="107" depart="116.00">
        <route edges="-260998164#3 422685674 422685672 422685675#0 422685673 422685678#0 422685677#0 422685680#0 422685680#1 229169572#1 229169572#5 229169572#6 422688975#0 422688976#1"/>
    </vehicle>
    <vehicle id="108" depart="117.00">
        <route edges="-260998164#3 422685674 422685672 422685675#0 422685673 422685678#0 422685677#0 422685680#0 422685680#1 -318908683#1"/>
    </vehicle>
    <vehicle id="109" depart="118.00">
        <route edges="105681660#12 961870460 -44884821#12 229169572#6 422688975#0 422688976#1"/>
    </vehicle>
    <vehicle id="110" depart="119.00">
        <route edges="318908683#0 229169572#1 229169572#5 44884821#0 597602755#0 -105681660#20"/>
    </vehicle>
    <vehicle id="111" depart="128.00">
        <route edges="422685671#2 422685679#0 229169572#1 229169572#5 44884821#0 -597602756#9 -597602756#3 -597602756#1 -597602756#0"/>
    </vehicle>
    <vehicle id="112" depart="129.00">
        <route edges="918280985 422688971#1 422685653 45673101#0 229169572#1 229169572#5 44884821#0 -597602756#9 -597602756#3 -597602756#1 -597602756#0"/>
    </vehicle>
    <vehicle id="113" depart="132.00">
        <route edges="597602753#0 597602753#2 597602753#3 597602753#10 961870460 -597602756#9 -44884008#4 -44884008#3 -44884008#2 -44884008#1 422685677#0 422685680#0 422685680#1 -318908683#1"/>
    </vehicle>
    <vehicle id="114" depart="132.00">
        <route edges="422685671#2 422685679#0 229169572#1 229169572#5 229169572#6 422688975#0 422688976#1"/>
    </vehicle>
    <vehicle id="115" depart="133.00">
        <route edges="597602753#0 597602753#2 597602753#3 597602753#10 961870460 -597602756#9 -44884008#4 -44884008#3 -44884008#2 -44884008#1 422685677#0 422685680#0 422685680#1 15334555#0 15374898#0-AddedOnRampEdge 15374898#0 15374898#0-AddedOffRampEdge"/>
    </vehicle>
    <vehicle id="116" depart="136.00">
        <route edges="422688973 422688971#1 422685653 45673101#0 314681894#0 422685676 -422685678#1 -422685673 -422685675#1 -422685672 -422685674 260998164#0"/>
    </vehicle>
    <vehicle id="117" depart="138.00">
        <route edges="597602753#0 597602753#2 597602753#3 597602753#10 961870460 -597602756#9 -44884008#4 -44884008#3 -44884008#2 -44884008#1 422685677#0 422685680#0 422685680#1 -318908683#1"/>
    </vehicle>
    <vehicle id="118" depart="138.00">
        <route edges="422688973 422688971#1 422685653 45673101#0 314681894#0 422685676 -422685678#1 -422685673 -422685675#1 -422685672 -422685674 260998164#0"/>
    </vehicle>
    <vehicle id="119" depart="138.00">
        <route edges="105681660#12 -597602753#13 -597602753#9 -597602753#2 -597602753#1"/>
    </vehicle>
    <vehicle id="120" depart="138.00">
        <route edges="422688973 422688971#1 422685653 45673101#0 229169572#1 229169572#5 44884821#0 -597602756#9 -597602756#3 -597602756#1 -597602756#0"/>
    </vehicle>
    <vehicle id="121" depart="140.00">
        <route edges="-260998164#3 422685674 422685672 422685675#0 422685673 422685678#0 422685677#0 422685680#0 422685680#1 15334555#0 15374898#0-AddedOnRampEdge 15374898#0 15374898#0-AddedOffRampEdge"/>
    </vehicle>
    <vehicle id="122" depart="141.00">
        <route edges="918280985 261136891#3 -15382203#1 928260165 -15456086#2 -597602753#13 -597602753#9 -597602753#2 -597602753#1"/>
    </vehicle>
    <vehicle id="123" depart="143.00">
        <route edges="422688973 422688971#1 422685653 45673101#0 -318908683#1"/>
    </vehicle>
    <vehicle id="124" depart="143.00">
        <route edges="105681660#12 15456086#0 15456086#3 -45672404 15382203#0 261136889#0 918280984"/>
    </vehicle>
    <vehicle id="125" depart="143.00">
        <route edges="105681660#12 961870460 -44884821#12 229169572#6 422688975#0 422688976#1"/>
    </vehicle>
    <vehicle id="126" depart="144.00">
        <route edges="-260998164#3 15420484#0 15420484#1 15420484#2 15420484#3 15420484#4 15420484#5 -597602756#0"/>
    </vehicle>
    <vehicle id="127" depart="145.00">
        <route edges="422685671#2 422685679#0 229169572#1 229169572#5 44884821#0 -597602756#9 -597602756#3 -597602756#1 -597602756#0"/>
    </vehicle>
    <vehicle id="128" depart="146.00">
        <route edges="597602756#0 597602756#1 597602756#2 -44884008#4 -44884008#3 -44884008#2 -44884008#1 422685677#0 422685680#0 422685680#1 15334555#0 15374898#0-AddedOnRampEdge 15374898#0 15374898#0-AddedOffRampEdge"/>
    </vehicle>
    <vehicle id="129" depart="147.00">
        <route edges="-260998164#3 422685674 422685672 422685675#0 422685673 422685678#0 422685677#0 422685680#0 422685680#1 -318908683#1"/>
    </vehicle>
    <vehicle id="130" depart="148.00">
        <route edges="105681660#12 961870460 -44884821#12 229169572#6 422688975#0 422688976#1"/>
    </vehicle>
    <vehicle id="131" depart="150.00">
        <route edges="422685671#2 422685679#0 229169572#1 229169572#5 229169572#6 422688975#0 422688976#1"/>
    </vehicle>
    <vehicle id="132" depart="150.00">
        <route edges="597602753#0 597602753#2 597602753#3 597602753#10 -105681660#20"/>
    </vehicle>
    <vehicle id="133" depart="150.00">
        <route edges="318908683#0 229169572#1 229169572#5 229169572#6 422688975#0 918280984"/>
    </vehicle>
    <vehicle id="134" depart="151.00">
        <route edges="422685671#2 422685679#0 229169572#1 229169572#5 44884821#0 597602755#0 -105681660#20"/>
    </vehicle>
    <vehicle id="135" depart="151.00">
        <route edges="318908683#0 229169572#1 229169572#5 229169572#6 422688975#0 422688976#1"/>
    </vehicle>
    <vehicle id="136" depart="155.00">
        <route edges="318908683#0 229169572#1 229169572#5 44884821#0 -597602756#9 -597602756#3 -597602756#1 -597602756#0"/>
    </vehicle>
    <vehicle id="137" depart="156.00">
        <route edges="318908683#0 229169572#1 229169572#5 229169572#6 422688975#0 422688976#1"/>
    </vehicle>
    <vehicle id="138" depart="156.00">
        <route edges="318908683#0 314681894#0 422685676 -422685678#1 -422685673 -422685675#1 -422685672 -422685674 260998164#0"/>
    </vehicle>
    <vehicle id="139" depart="157.00">
        <route edges="105681660#12 -597602753#13 -597602753#9 -597602753#2 -597602753#1"/>
    </vehicle>
    <vehicle id="140" depart="157.00">
        <route edges="597602753#0 597602753#2 597602753#3 597602753#10 961870460 -597602756#9 -44884008#4 -44884008#3 -44884008#2 -44884008#1 -422685678#1 -422685673 -422685675#1 -422685672 -422685674 260998164#0"/>
    </vehicle>
    <vehicle id="141" depart="158.00">
        <route edges="597602756#0 597602756#1 597602756#2 -44884008#4 -44884008#3 -44884008#2 -44884008#1 422685677#0 422685680#0 422685680#1 -318908683#1"/>
    </vehicle>
    <vehicle id="142" depart="159.00">
        <route edges="422688973 422688971#1 422685653 45673101#0 314681894#0 422685676 -422685678#1 -422685673 -422685675#1 -422685672 -422685674 260998164#0"/>
    </vehicle>
    <vehicle id="143" depart="163.00">
        <route edges="597602753#0 597602753#2 597602753#3 597602753#10 961870460 -44884821#12 229169572#6 422688975#0 422688976#1"/>
    </vehicle>
    <vehicle id="144" depart="164.00">
        <route edges="597602756#0 597602756#1 597602756#2 597602756#4 -44884821#12 229169572#6 422688975#0 918280984"/>
    </vehicle>
    <vehicle id="145" depart="165.00">
        <route edges="-260998164#3 422685674 422685672 422685675#0 422685673 422685678#0 422685677#0 422685680#0 422685680#1 229169572#1 229169572#5 229169572#6 422688975#0 422688976#1"/>
    </vehicle>
    <vehicle id="146" depart="165.00">
        <route edges="918280985 422688971#1 422685653 45673101#0 314681894#0 422685676 -422685678#1 -422685673 -422685675#1 -422685672 -422685674 260998164#0"/>
    </vehicle>
    <vehicle id="147" depart="166.00">
        <route edges="597602753#0 597602753#2 597602753#3 597602753#10 -105681660#20"/>
    </vehicle>
    <vehicle id="148" depart="166.00">
        <route edges="318908683#0 229169572#1 229169572#5 44884821#0 597602755#0 -597602753#13 -597602753#9 -597602753#2 -597602753#1"/>
    </vehicle>
    <vehicle id="149" depart="168.00">
        <route edges="318908683#0 229169572#1 229169572#5 44884821#0 597602755#0 -105681660#20"/>
    </vehicle>
    <vehicle id="150" depart="169.00">
        <route edges="918280985 422688971#1 422685653 45673101#0 314681894#0 422685676 -422685678#1 -422685673 -422685675#1 -422685672 -422685674 260998164#0"/>
    </vehicle>
    <vehicle id="151" depart="169.00">