<?xml version="1.0" ?>
<routes xmlns:xsi="&quot;http://www.w3.org/2001/XMLSchema-instance&quot;" xsi:noNamespaceSchemaLocation="&quot;http://sumo.dlr.de/xsd/routes_file.xsd&quot;">
	<trip id="2" depart="0" from="918280985" to="-597602753#1"/>
	<trip id="3" depart="1" from="597602756#0" to="-597602753#1"/>
	<trip id="4" depart="2" from="422685671#2" to="918280984"/>
	<trip id="5" depart="2" from="918280985" to="-597602756#0"/>
	<trip id="6" depart="2" from="-260998164#3" to="918280984"/>
	<trip id="7" depart="2" from="105681660#12" to="260998164#0"/>
	<trip id="8" depart="3" from="105681660#12" to="422688976#1"/>
	<trip id="9" depart="4" from="-260998164#3" to="-597602753#1"/>
	<trip id="10" depart="7" from="105681660#12" to="-597602756#0"/>
	<trip id="11" depart="7" from="-260998164#3" to="15374898#0-AddedOffRampEdge"/>
	<trip id="12" depart="8" from="-260998164#3" to="422688976#1"/>
	<trip id="13" depart="8" from="422688973" to="-597602753#1"/>
	<trip id="14" depart="8" from="-260998164#3" to="15374898#0-AddedOffRampEdge"/>
	<trip id="15" depart="11" from="597602753#0" to="422688976#1"/>
	<trip id="16" depart="11" from="597602756#0" to="260998164#0"/>
	<trip id="17" depart="11" from="105681660#12" to="15374898#0-AddedOffRampEdge"/>
	<trip id="18" depart="12" from="597602753#0" to="-597602756#0"/>
	<trip id="19" depart="14" from="-260998164#3" to="-318908683#1"/>
	<trip id="20" depart="14" from="918280985" to="-105681660#20"/>
	<trip id="21" depart="14" from="318908683#0" to="918280984"/>
	<trip id="22" depart="15" from="597602756#0" to="422688976#1"/>
	<trip id="23" depart="15" from="422685671#2" to="260998164#0"/>
	<trip id="24" depart="18" from="318908683#0" to="422688976#1"/>
	<trip id="25" depart="19" from="105681660#12" to="918280984"/>
	<trip id="26" depart="19" from="422685671#2" to="260998164#0"/>
	<trip id="27" depart="19" from="597602753#0" to="422688976#1"/>
	<trip id="28" depart="19" from="105681660#12" to="-318908683#1"/>
	<trip id="29" depart="20" from="422688973" to="15374898#0-AddedOffRampEdge"/>
	<trip id="30" depart="20" from="918280985" to="260998164#0"/>
	<trip id="31" depart="21" from="918280985" to="260998164#0"/>
	<trip id="32" depart="21" from="105681660#12" to="-318908683#1"/>
	<trip id="33" depart="21" from="422688973" to="260998164#0"/>
	<trip id="34" depart="24" from="918280985" to="-597602756#0"/>
	<trip id="35" depart="24" from="597602756#0" to="-597602753#1"/>
	<trip id="36" depart="24" from="918280985" to="260998164#0"/>
	<trip id="37" depart="24" from="918280985" to="260998164#0"/>
	<trip id="38" depart="25" from="597602753#0" to="-597602756#0"/>
	<trip id="39" depart="25" from="-260998164#3" to="422688976#1"/>
	<trip id="40" depart="25" from="422685671#2" to="918280984"/>
	<trip id="41" depart="26" from="422688973" to="-318908683#1"/>
	<trip id="42" depart="27" from="318908683#0" to="422688976#1"/>
	<trip id="43" depart="27" from="918280985" to="-597602753#1"/>
	<trip id="44" depart="30" from="597602753#0" to="260998164#0"/>
	<trip id="45" depart="31" from="422688973" to="15374898#0-AddedOffRampEdge"/>
	<trip id="46" depart="31" from="422685671#2" to="-105681660#20"/>
	<trip id="47" depart="32" from="422688973" to="260998164#0"/>
	<trip id="48" depart="32" from="422685671#2" to="-597602756#0"/>
	<trip id="49" depart="32" from="105681660#12" to="918280984"/>
	<trip id="50" depart="33" from="318908683#0" to="-597602753#1"/>
	<trip id="51" depart="34" from="422685671#2" to="-105681660#20"/>
	<trip id="52" depart="35" from="-260998164#3" to="918280984"/>
	<trip id="53" depart="35" from="318908683#0" to="918280984"/>
	<trip id="54" depart="37" from="105681660#12" to="918280984"/>
	<trip id="55" depart="41" from="422685671#2" to="-597602753#1"/>
	<trip id="56" depart="42" from="918280985" to="-597602753#1"/>
	<trip id="57" depart="44" from="597602753#0" to="918280984"/>
	<trip id="58" depart="48" from="597602753#0" to="-105681660#20"/>
	<trip id="59" depart="50" from="422685671#2" to="-597602756#0"/>
	<trip id="60" depart="51" from="318908683#0" to="422688976#1"/>
	<trip id="61" depart="53" from="422688973" to="-597602756#0"/>
	<trip id="62" depart="57" from="422688973" to="260998164#0"/>
	<trip id="63" depart="59" from="597602753#0" to="-597602756#0"/>
	<trip id="64" depart="60" from="422685671#2" to="-597602756#0"/>
	<trip id="65" depart="61" from="597602753#0" to="-318908683#1"/>
	<trip id="66" depart="62" from="318908683#0" to="422688976#1"/>
	<trip id="67" depart="63" from="597602753#0" to="918280984"/>
	<trip id="68" depart="64" from="918280985" to="-597602753#1"/>
	<trip id="69" depart="66" from="318908683#0" to="-105681660#20"/>
	<trip id="70" depart="68" from="-260998164#3" to="918280984"/>
	<trip id="71" depart="69" from="918280985" to="260998164#0"/>
	<trip id="72" depart="69" from="318908683#0" to="-597602756#0"/>
	<trip id="73" depart="70" from="918280985" to="-597602756#0"/>
	<trip id="74" depart="71" from="105681660#12" to="918280984"/>
	<trip id="75" depart="71" from="422688973" to="-105681660#20"/>
	<trip id="76" depart="72" from="422688973" to="15374898#0-AddedOffRampEdge"/>
	<trip id="77" depart="74" from="105681660#12" to="-597602753#1"/>
	<trip id="78" depart="74" from="105681660#12" to="918280984"/>
	<trip id="79" depart="75" from="422688973" to="-105681660#20"/>
	<trip id="80" depart="75" from="318908683#0" to="-597602753#1"/>
	<trip id="81" depart="76" from="105681660#12" to="-597602756#0"/>
	<trip id="82" depart="77" from="318908683#0" to="918280984"/>
	<trip id="83" depart="78" from="318908683#0" to="918280984"/>
	<trip id="84" depart="80" from="597602753#0" to="15374898#0-AddedOffRampEdge"/>
	<trip id="85" depart="80" from="918280985" to="15374898#0-AddedOffRampEdge"/>
	<trip id="86" depart="82" from="597602756#0" to="-597602753#1"/>
	<trip id="87" depart="83" from="422688973" to="-318908683#1"/>
	<trip id="88" depart="84" from="597602756#0" to="918280984"/>
	<trip id="89" depart="87" from="422685671#2" to="-105681660#20"/>
	<trip id="90" depart="88" from="597602756#0" to="-105681660#20"/>
	<trip id="91" depart="89" from="422688973" to="260998164#0"/>
	<trip id="92" depart="90" from="422688973" to="-318908683#1"/>
	<trip id="93" depart="91" from="597602753#0" to="-597602756#0"/>
	<trip id="94" depart="93" from="105681660#12" to="-597602753#1"/>
	<trip id="95" depart="94" from="318908683#0" to="260998164#0"/>
	<trip id="96" depart="95" from="422685671#2" to="-105681660#20"/>
	<trip id="97" depart="96" from="422685671#2" to="-597602756#0"/>
	<trip id="98" depart="97" from="105681660#12" to="422688976#1"/>
	<trip id="99" depart="97" from="-260998164#3" to="918280984"/>
	<trip id="100" depart="97" from="918280985" to="-597602756#0"/>
	<trip id="101" depart="98" from="918280985" to="-597602753#1"/>
	<trip id="102" depart="99" from="-260998164#3" to="15374898#0-AddedOffRampEdge"/>
	<trip id="103" depart="99" from="422688973" to="-597602756#0"/>
	<trip id="104" depart="101" from="597602753#0" to="15374898#0-AddedOffRampEdge"/>
	<trip id="105" depart="105" from="105681660#12" to="918280984"/>
	<trip id="106" depart="105" from="597602756#0" to="-105681660#20"/>
	<trip id="107" depart="106" from="918280985" to="-318908683#1"/>
	<trip id="108" depart="106" from="597602756#0" to="-597602753#1"/>
	<trip id="109" depart="107" from="918280985" to="-597602753#1"/>
	<trip id="110" depart="107" from="318908683#0" to="-597602756#0"/>
	<trip id="111" depart="109" from="918280985" to="15374898#0-AddedOffRampEdge"/>
	<trip id="112" depart="110" from="597602756#0" to="-597602753#1"/>
	<trip id="113" depart="111" from="597602753#0" to="918280984"/>
	<trip id="114" depart="111" from="-260998164#3" to="918280984"/>
	<trip id="115" depart="113" from="597602753#0" to="422688976#1"/>
	<trip id="116" depart="116" from="105681660#12" to="15374898#0-AddedOffRampEdge"/>
	<trip id="117" depart="117" from="318908683#0" to="-597602753#1"/>
	<trip id="118" depart="118" from="422688973" to="15374898#0-AddedOffRampEdge"/>
	<trip id="119" depart="119" from="422685671#2" to="918280984"/>
	<trip id="120" depart="121" from="318908683#0" to="422688976#1"/>
	<trip id="121" depart="121" from="318908683#0" to="918280984"/>
	<trip id="122" depart="122" from="422685671#2" to="-105681660#20"/>
	<trip id="123" depart="122" from="422688973" to="-597602753#1"/>
	<trip id="124" depart="123" from="422688973" to="-105681660#20"/>
	<trip id="125" depart="123" from="422685671#2" to="-597602753#1"/>
	<trip id="126" depart="123" from="597602756#0" to="-597602753#1"/>
	<trip id="127" depart="123" from="597602753#0" to="15374898#0-AddedOffRampEdge"/>
	<trip id="128" depart="126" from="918280985" to="-597602756#0"/>
	<trip id="129" depart="126" from="-260998164#3" to="422688976#1"/>
	<trip id="130" depart="126" from="422688973" to="260998164#0"/>
	<trip id="131" depart="128" from="422688973" to="-105681660#20"/>
	<trip id="132" depart="128" from="597602753#0" to="-597602756#0"/>
	<trip id="133" depart="128" from="918280985" to="-597602756#0"/>
	<trip id="134" depart="129" from="318908683#0" to="-105681660#20"/>
	<trip id="135" depart="130" from="597602753#0" to="918280984"/>
	<trip id="136" depart="130" from="422688973" to="-597602753#1"/>
	<trip id="137" depart="133" from="422688973" to="-105681660#20"/>
	<trip id="138" depart="133" from="597602756#0" to="918280984"/>
	<trip id="139" depart="134" from="422685671#2" to="-597602753#1"/>
	<trip id="140" depart="135" from="918280985" to="260998164#0"/>
	<trip id="141" depart="136" from="105681660#12" to="918280984"/>
	<trip id="142" depart="136" from="597602756#0" to="422688976#1"/>
	<trip id="143" depart="136" from="422685671#2" to="-105681660#20"/>
	<trip id="144" depart="137" from="-260998164#3" to="-318908683#1"/>
	<trip id="145" depart="137" from="918280985" to="-597602756#0"/>
	<trip id="146" depart="138" from="422685671#2" to="-105681660#20"/>
	<trip id="147" depart="140" from="422688973" to="-318908683#1"/>
	<trip id="148" depart="140" from="422685671#2" to="918280984"/>
	<trip id="149" depart="141" from="422688973" to="-318908683#1"/>
	<trip id="150" depart="142" from="597602756#0" to="-105681660#20"/>
	<trip id="151" depart="144" from="-260998164#3" to="15374898#0-AddedOffRampEdge"/>
	<trip id="152" depart="144" from="422688973" to="260998164#0"/>
	<trip id="153" depart="146" from="422685671#2" to="422688976#1"/>
	<trip id="154" depart="146" from="597602756#0" to="-597602753#1"/>
	<trip id="155" depart="146" from="918280985" to="260998164#0"/>
	<trip id="156" depart="147" from="318908683#0" to="260998164#0"/>
	<trip id="157" depart="148" from="-260998164#3" to="422688976#1"/>
	<trip id="158" depart="149" from="-260998164#3" to="-597602756#0"/>
	<trip id="159" depart="149" from="422685671#2" to="422688976#1"/>
	<trip id="160" depart="154" from="105681660#12" to="-597602756#0"/>
	<trip id="161" depart="154" from="105681660#12" to="-597602756#0"/>
	<trip id="162" depart="155" from="918280985" to="-105681660#20"/>
	<trip id="163" depart="155" from="-260998164#3" to="422688976#1"/>
	<trip id="164" depart="159" from="597602756#0" to="15374898#0-AddedOffRampEdge"/>
	<trip id="165" depart="160" from="-260998164#3" to="-597602756#0"/>
	<trip id="166" depart="161" from="318908683#0" to="918280984"/>
	<trip id="167" depart="161" from="-260998164#3" to="422688976#1"/>
	<trip id="168" depart="162" from="-260998164#3" to="-318908683#1"/>
	<trip id="169" depart="163" from="422688973" to="15374898#0-AddedOffRampEdge"/>
	<trip id="170" depart="164" from="597602753#0" to="422688976#1"/>
	<trip id="171" depart="167" from="318908683#0" to="260998164#0"/>
	<trip id="172" depart="168" from="318908683#0" to="-597602753#1"/>
	<trip id="173" depart="169" from="422685671#2" to="-597602756#0"/>
	<trip id="174" depart="172" from="318908683#0" to="-597602756#0"/>
	<trip id="175" depart="175" from="597602756#0" to="422688976#1"/>
	<trip id="176" depart="177" from="918280985" to="-318908683#1"/>
	<trip id="177" depart="178" from="-260998164#3" to="-597602756#0"/>
	<trip id="178" depart="180" from="597602756#0" to="260998164#0"/>
	<trip id="179" depart="181" from="597602756#0" to="-105681660#20"/>
	<trip id="180" depart="183" from="918280985" to="260998164#0"/>
	<trip id="181" depart="184" from="318908683#0" to="-597602756#0"/>
	<trip id="182" depart="186" from="422685671#2" to="-597602753#1"/>
	<trip id="183" depart="188" from="422688973" to="-597602753#1"/>
	<trip id="184" depart="188" from="318908683#0" to="-105681660#20"/>
	<trip id="185" depart="189" from="597602756#0" to="15374898#0-AddedOffRampEdge"/>
	<trip id="186" depart="189" from="918280985" to="15374898#0-AddedOffRampEdge"/>
	<trip id="187" depart="190" from="597602753#0" to="-318908683#1"/>
	<trip id="188" depart="191" from="597602756#0" to="918280984"/>
	<trip id="189" depart="192" from="318908683#0" to="260998164#0"/>
	<trip id="190" depart="192" from="597602756#0" to="-105681660#20"/>
	<trip id="191" depart="193" from="-260998164#3" to="422688976#1"/>
	<trip id="192" depart="194" from="105681660#12" to="918280984"/>
	<trip id="193" depart="195" from="318908683#0" to="-597602756#0"/>
	<trip id="194" depart="196" from="318908683#0" to="260998164#0"/>
	<trip id="195" depart="198" from="597602756#0" to="260998164#0"/>
	<trip id="196" depart="198" from="918280985" to="15374898#0-AddedOffRampEdge"/>
	<trip id="197" depart="198" from="-260998164#3" to="-105681660#20"/>
	<trip id="198" depart="204" from="105681660#12" to="-597602753#1"/>
	<trip id="199" depart="204" from="422685671#2" to="-597602753#1"/>
	<trip id="200" depart="205" from="918280985" to="15374898#0-AddedOffRampEdge"/>
	<trip id="201" depart="206" from="422685671#2" to="-105681660#20"/>
	<trip id="202" depart="206" from="422685671#2" to="-597602753#1"/>
	<trip id="203" depart="207" from="597602753#0" to="-318908683#1"/>
	<trip id="204" depart="208" from="597602753#0" to="422688976#1"/>
	<trip id="205" depart="209" from="-260998164#3" to="-318908683#1"/>
	<trip id="206" depart="211" from="422688973" to="260998164#0"/>
	<trip id="207" depart="211" from="422688973" to="260998164#0"/>
	<trip id="208" depart="212" from="-260998164#3" to="918280984"/>
	<trip id="209" depart="213" from="105681660#12" to="15374898#0-AddedOffRampEdge"/>
	<trip id="210" depart="214" from="597602753#0" to="-105681660#20"/>
	<trip id="211" depart="215" from="318908683#0" to="918280984"/>
	<trip id="212" depart="216" from="422688973" to="-318908683#1"/>
	<trip id="213" depart="216" from="105681660#12" to="918280984"/>
	<trip id="214" depart="216" from="422688973" to="-105681660#20"/>
	<trip id="215" depart="217" from="105681660#12" to="260998164#0"/>
	<trip id="216" depart="217" from="918280985" to="260998164#0"/>
	<trip id="217" depart="217" from="318908683#0" to="422688976#1"/>
	<trip id="218" depart="217" from="105681660#12" to="-597602756#0"/>
	<trip id="219" depart="218" from="422688973" to="-105681660#20"/>
	<trip id="220" depart="219" from="105681660#12" to="-597602756#0"/>
	<trip id="221" depart="220" from="597602756#0" to="-105681660#20"/>
	<trip id="222" depart="221" from="597602753#0" to="-318908683#1"/>
	<trip id="223" depart="225" from="422688973" to="-318908683#1"/>
	<trip id="224" depart="226" from="-260998164#3" to="-105681660#20"/>
	<trip id="225" depart="228" from="597602756#0" to="260998164#0"/>
	<trip id="226" depart="230" from="597602753#0" to="918280984"/>
	<trip id="227" depart="232" from="597602756#0" to="-597602753#1"/>
	<trip id="228" depart="233" from="597602753#0" to="15374898#0-AddedOffRampEdge"/>
	<trip id="229" depart="233" from="422688973" to="-318908683#1"/>
	<trip id="230" depart="236" from="105681660#12" to="260998164#0"/>
	<trip id="231" depart="237" from="597602756#0" to="-318908683#1"/>
	<trip id="232" depart="242" from="597602756#0" to="260998164#0"/>
	<trip id="233" depart="242" from="422685671#2" to="422688976#1"/>
	<trip id="234" depart="242" from="918280985" to="-105681660#20"/>
	<trip id="235" depart="242" from="422685671#2" to="-597602753#1"/>
	<trip id="236" depart="243" from="597602756#0" to="260998164#0"/>
	<trip id="237" depart="244" from="597602756#0" to="260998164#0"/>
	<trip id="238" depart="245" from="597602753#0" to="-597602756#0"/>
	<trip id="239" depart="245" from="597602756#0" to="15374898#0-AddedOffRampEdge"/>
	<trip id="240" depart="245" from="597602756#0" to="422688976#1"/>
	<trip id="241" depart="246" from="597602753#0" to="260998164#0"/>
	<trip id="242" depart="246" from="597602756#0" to="-597602753#1"/>
	<trip id="243" depart="247" from="105681660#12" to="-597602756#0"/>
	<trip id="244" depart="248" from="422688973" to="-597602753#1"/>
	<trip id="245" depart="249" from="318908683#0" to="-597602753#1"/>
	<trip id="246" depart="250" from="422688973" to="-597602753#1"/>
	<trip id="247" depart="250" from="422688973" to="260998164#0"/>
	<trip id="248" depart="250" from="597602753#0" to="-318908683#1"/>
	<trip id="249" depart="251" from="597602756#0" to="260998164#0"/>
	<trip id="250" depart="252" from="597602753#0" to="-597602756#0"/>
	<trip id="251" depart="252" from="422688973" to="-597602753#1"/>
	<trip id="252" depart="252" from="318908683#0" to="260998164#0"/>
	<trip id="253" depart="253" from="105681660#12" to="15374898#0-AddedOffRampEdge"/>
	<trip id="254" depart="258" from="-260998164#3" to="422688976#1"/>
	<trip id="255" depart="258" from="422688973" to="-318908683#1"/>
	<trip id="256" depart="260" from="597602756#0" to="-105681660#20"/>
	<trip id="257" depart="261" from="918280985" to="-318908683#1"/>
	<trip id="258" depart="262" from="318908683#0" to="918280984"/>
	<trip id="259" depart="263" from="105681660#12" to="-597602753#1"/>
	<trip id="260" depart="266" from="422685671#2" to="422688976#1"/>
	<trip id="261" depart="268" from="422688973" to="-318908683#1"/>
	<trip id="262" depart="269" from="918280985" to="-318908683#1"/>
	<trip id="263" depart="270" from="918280985" to="-597602753#1"/>
	<trip id="264" depart="273" from="318908683#0" to="-105681660#20"/>
	<trip id="265" depart="273" from="-260998164#3" to="422688976#1"/>
	<trip id="266" depart="273" from="597602756#0" to="918280984"/>
	<trip id="267" depart="275" from="422685671#2" to="-597602753#1"/>
	<trip id="268" depart="275" from="422685671#2" to="-597602756#0"/>
	<trip id="269" depart="275" from="422685671#2" to="-597602753#1"/>
	<trip id="270" depart="276" from="597602753#0" to="-105681660#20"/>
	<trip id="271" depart="277" from="422688973" to="-597602756#0"/>
	<trip id="272" depart="280" from="422688973" to="-597602753#1"/>
	<trip id="273" depart="280" from="-260998164#3" to="-318908683#1"/>
	<trip id="274" depart="281" from="-260998164#3" to="422688976#1"/>
	<trip id="275" depart="285" from="422685671#2" to="918280984"/>
	<trip id="276" depart="285" from="-260998164#3" to="-105681660#20"/>
	<trip id="277" depart="286" from="422685671#2" to="-105681660#20"/>
	<trip id="278" depart="287" from="918280985" to="-105681660#20"/>
	<trip id="279" depart="288" from="105681660#12" to="-318908683#1"/>
	<trip id="280" depart="288" from="105681660#12" to="918280984"/>
	<trip id="281" depart="290" from="105681660#12" to="422688976#1"/>
	<trip id="282" depart="291" from="105681660#12" to="422688976#1"/>
	<trip id="283" depart="292" from="318908683#0" to="918280984"/>
	<trip id="284" depart="292" from="597602756#0" to="-318908683#1"/>
	<trip id="285" depart="292" from="105681660#12" to="918280984"/>
	<trip id="286" depart="296" from="597602756#0" to="-105681660#20"/>
	<trip id="287" depart="297" from="918280985" to="260998164#0"/>
	<trip id="288" depart="297" from="105681660#12" to="-597602756#0"/>
	<trip id="289" depart="298" from="422685671#2" to="-597602756#0"/>
	<trip id="290" depart="299" from="-260998164#3" to="-105681660#20"/>
	<trip id="291" depart="301" from="422688973" to="15374898#0-AddedOffRampEdge"/>
	<trip id="292" depart="302" from="318908683#0" to="-597602753#1"/>
	<trip id="293" depart="302" from="105681660#12" to="-597602756#0"/>
	<trip id="294" depart="304" from="597602756#0" to="15374898#0-AddedOffRampEdge"/>
	<trip id="295" depart="304" from="597602753#0" to="918280984"/>
	<trip id="296" depart="304" from="-260998164#3" to="-597602756#0"/>
	<trip id="297" depart="305" from="422685671#2" to="-597602756#0"/>
	<trip id="298" depart="305" from="918280985" to="260998164#0"/>
	<trip id="299" depart="305" from="422685671#2" to="422688976#1"/>
	<trip id="300" depart="306" from="318908683#0" to="-597602756#0"/>
	<trip id="301" depart="306" from="105681660#12" to="260998164#0"/>
	<trip id="302" depart="307" from="105681660#12" to="-597602753#1"/>
	<trip id="303" depart="308" from="-260998164#3" to="-105681660#20"/>
	<trip id="304" depart="310" from="597602753#0" to="-597602756#0"/>
	<trip id="305" depart="310" from="422685671#2" to="918280984"/>
	<trip id="306" depart="310" from="597602756#0" to="-597602753#1"/>
	<trip id="307" depart="311" from="422685671#2" to="-105681660#20"/>
	<trip id="308" depart="311" from="105681660#12" to="-597602753#1"/>
	<trip id="309" depart="311" from="597602756#0" to="918280984"/>
	<trip id="310" depart="312" from="318908683#0" to="-597602756#0"/>
	<trip id="311" depart="312" from="422685671#2" to="-597602756#0"/>
	<trip id="312" depart="314" from="422688973" to="-105681660#20"/>
	<trip id="313" depart="315" from="422685671#2" to="-597602753#1"/>
	<trip id="314" depart="315" from="597602753#0" to="918280984"/>
	<trip id="315" depart="316" from="918280985" to="15374898#0-AddedOffRampEdge"/>
	<trip id="316" depart="318" from="597602753#0" to="422688976#1"/>
	<trip id="317" depart="318" from="422688973" to="15374898#0-AddedOffRampEdge"/>
	<trip id="318" depart="318" from="422685671#2" to="-597602756#0"/>
	<trip id="319" depart="319" from="597602753#0" to="-318908683#1"/>
	<trip id="320" depart="321" from="597602756#0" to="260998164#0"/>
	<trip id="321" depart="322" from="422685671#2" to="422688976#1"/>
	<trip id="322" depart="323" from="422685671#2" to="260998164#0"/>
	<trip id="323" depart="324" from="918280985" to="-318908683#1"/>
	<trip id="324" depart="326" from="422688973" to="-318908683#1"/>
	<trip id="325" depart="326" from="105681660#12" to="-318908683#1"/>
	<trip id="326" depart="327" from="422685671#2" to="422688976#1"/>
	<trip id="327" depart="328" from="597602753#0" to="918280984"/>
	<trip id="328" depart="330" from="918280985" to="-105681660#20"/>
	<trip id="329" depart="331" from="597602753#0" to="-597602756#0"/>
	<trip id="330" depart="331" from="597602753#0" to="15374898#0-AddedOffRampEdge"/>
	<trip id="331" depart="333" from="422688973" to="-105681660#20"/>
	<trip id="332" depart="334" from="422688973" to="15374898#0-AddedOffRampEdge"/>
	<trip id="333" depart="334" from="105681660#12" to="260998164#0"/>
	<trip id="334" depart="336" from="597602756#0" to="422688976#1"/>
	<trip id="335" depart="336" from="597602753#0" to="-318908683#1"/>
	<trip id="336" depart="338" from="597602756#0" to="422688976#1"/>
	<trip id="337" depart="338" from="597602753#0" to="918280984"/>
	<trip id="338" depart="339" from="318908683#0" to="260998164#0"/>
	<trip id="339" depart="340" from="597602753#0" to="-318908683#1"/>
	<trip id="340" depart="343" from="918280985" to="-318908683#1"/>
	<trip id="341" depart="346" from="422688973" to="-597602756#0"/>
	<trip id="342" depart="347" from="918280985" to="260998164#0"/>
	<trip id="343" depart="348" from="318908683#0" to="422688976#1"/>
	<trip id="344" depart="349" from="918280985" to="15374898#0-AddedOffRampEdge"/>
	<trip id="345" depart="350" from="597602753#0" to="422688976#1"/>
	<trip id="346" depart="350" from="918280985" to="-105681660#20"/>
	<trip id="347" depart="351" from="422688973" to="-105681660#20"/>
	<trip id="348" depart="351" from="105681660#12" to="918280984"/>
	<trip id="349" depart="352" from="318908683#0" to="-105681660#20"/>
	<trip id="350" depart="357" from="318908683#0" to="-105681660#20"/>
	<trip id="351" depart="357" from="918280985" to="15374898#0-AddedOffRampEdge"/>
	<trip id="352" depart="357" from="105681660#12" to="15374898#0-AddedOffRampEdge"/>
	<trip id="353" depart="359" from="105681660#12" to="-318908683#1"/>
	<trip id="354" depart="362" from="597602756#0" to="918280984"/>
	<trip id="355" depart="364" from="918280985" to="-597602756#0"/>
	<trip id="356" depart="365" from="422688973" to="-105681660#20"/>
	<trip id="357" depart="367" from="-260998164#3" to="918280984"/>
	<trip id="358" depart="371" from="318908683#0" to="422688976#1"/>
	<trip id="359" depart="372" from="105681660#12" to="-597602756#0"/>
	<trip id="360" depart="373" from="918280985" to="-105681660#20"/>
	<trip id="361" depart="373" from="422688973" to="-597602753#1"/>
	<trip id="362" depart="376" from="422685671#2" to="-105681660#20"/>
	<trip id="363" depart="377" from="597602756#0" to="-318908683#1"/>
	<trip id="364" depart="379" from="-260998164#3" to="15374898#0-AddedOffRampEdge"/>
	<trip id="365" depart="379" from="597602753#0" to="260998164#0"/>
	<trip id="366" depart="380" from="918280985" to="-597602756#0"/>
	<trip id="367" depart="382" from="597602756#0" to="15374898#0-AddedOffRampEdge"/>
	<trip id="368" depart="384" from="105681660#12" to="918280984"/>
	<trip id="369" depart="385" from="-260998164#3" to="-318908683#1"/>
	<trip id="370" depart="388" from="-260998164#3" to="-597602756#0"/>
	<trip id="371" depart="391" from="918280985" to="-105681660#20"/>
	<trip id="372" depart="391" from="422685671#2" to="-597602753#1"/>
	<trip id="373" depart="392" from="105681660#12" to="15374898#0-AddedOffRampEdge"/>
	<trip id="374" depart="393" from="318908683#0" to="260998164#0"/>
	<trip id="375" depart="393" from="105681660#12" to="260998164#0"/>
	<trip id="376" depart="395" from="105681660#12" to="918280984"/>
	<trip id="377" depart="395" from="-260998164#3" to="-597602756#0"/>
	<trip id="378" depart="397" from="105681660#12" to="-318908683#1"/>
	<trip id="379" depart="398" from="918280985" to="-105681660#20"/>
	<trip id="380" depart="399" from="105681660#12" to="15374898#0-AddedOffRampEdge"/>
	<trip id="381" depart="400" from="-260998164#3" to="918280984"/>
	<trip id="382" depart="401" from="918280985" to="15374898#0-AddedOffRampEdge"/>
	<trip id="383" depart="401" from="597602756#0" to="918280984"/>
	<trip id="384" depart="403" from="422688973" to="-597602753#1"/>
	<trip id="385" depart="403" from="-260998164#3" to="15374898#0-AddedOffRampEdge"/>
	<trip id="386" depart="403" from="597602753#0" to="918280984"/>
	<trip id="387" depart="405" from="597602756#0" to="918280984"/>
	<trip id="388" depart="407" from="105681660#12" to="422688976#1"/>
	<trip id="389" depart="408" from="597602753#0" to="-597602756#0"/>
	<trip id="390" depart="409" from="422685671#2" to="-105681660#20"/>
	<trip id="391" depart="411" from="597602753#0" to="15374898#0-AddedOffRampEdge"/>
	<trip id="392" depart="412" from="422685671#2" to="260998164#0"/>
	<trip id="393" depart="413" from="105681660#12" to="918280984"/>
	<trip id="394" depart="413" from="597602753#0" to="918280984"/>
	<trip id="395" depart="413" from="422685671#2" to="918280984"/>
	<trip id="396" depart="415" from="-260998164#3" to="422688976#1"/>
	<trip id="397" depart="416" from="597602753#0" to="422688976#1"/>
	<trip id="398" depart="416" from="422685671#2" to="422688976#1"/>
	<trip id="399" depart="417" from="597602753#0" to="-105681660#20"/>
	<trip id="400" depart="417" from="422688973" to="15374898#0-AddedOffRampEdge"/>
	<trip id="401" depart="417" from="918280985" to="-597602756#0"/>
	<trip id="402" depart="417" from="597602756#0" to="260998164#0"/>
	<trip id="403" depart="420" from="597602753#0" to="-105681660#20"/>
	<trip id="404" depart="420" from="-260998164#3" to="-597602753#1"/>
	<trip id="405" depart="421" from="105681660#12" to="-597602753#1"/>
	<trip id="406" depart="428" from="422688973" to="-318908683#1"/>
	<trip id="407" depart="428" from="105681660#12" to="260998164#0"/>
	<trip id="408" depart="429" from="318908683#0" to="260998164#0"/>
	<trip id="409" depart="429" from="597602756#0" to="-597602753#1"/>
	<trip id="410" depart="430" from="422688973" to="15374898#0-AddedOffRampEdge"/>
	<trip id="411" depart="430" from="-260998164#3" to="15374898#0-AddedOffRampEdge"/>
	<trip id="412" depart="431" from="-260998164#3" to="918280984"/>
	<trip id="413" depart="431" from="105681660#12" to="422688976#1"/>
	<trip id="414" depart="432" from="-260998164#3" to="918280984"/>
	<trip id="415" depart="433" from="318908683#0" to="-597602756#0"/>
	<trip id="416" depart="435" from="422685671#2" to="918280984"/>
	<trip id="417" depart="435" from="422685671#2" to="-597602756#0"/>
	<trip id="418" depart="436" from="318908683#0" to="-597602756#0"/>
	<trip id="419" depart="438" from="318908683#0" to="-597602756#0"/>
	<trip id="420" depart="438" from="-260998164#3" to="-318908683#1"/>
	<trip id="421" depart="443" from="105681660#12" to="918280984"/>
	<trip id="422" depart="445" from="422688973" to="-105681660#20"/>
	<trip id="423" depart="445" from="318908683#0" to="918280984"/>
	<trip id="424" depart="445" from="-260998164#3" to="-597602753#1"/>
	<trip id="425" depart="445" from="422688973" to="-105681660#20"/>
	<trip id="426" depart="450" from="597602756#0" to="422688976#1"/>
	<trip id="427" depart="450" from="597602756#0" to="422688976#1"/>
	<trip id="428" depart="451" from="918280985" to="-597602756#0"/>
	<trip id="429" depart="453" from="422685671#2" to="-105681660#20"/>
	<trip id="430" depart="453" from="918280985" to="15374898#0-AddedOffRampEdge"/>
	<trip id="431" depart="454" from="597602756#0" to="-318908683#1"/>
	<trip id="432" depart="454" from="422688973" to="-597602753#1"/>
	<trip id="433" depart="454" from="597602753#0" to="-597602756#0"/>
	<trip id="434" depart="455" from="597602753#0" to="15374898#0-AddedOffRampEdge"/>
	<trip id="435" depart="455" from="597602753#0" to="260998164#0"/>
	<trip id="436" depart="456" from="422688973" to="-597602753#1"/>
	<trip id="437" depart="457" from="-260998164#3" to="15374898#0-AddedOffRampEdge"/>