<?xml version="1.0" encoding="UTF-8"?>

<!-- generated on 2023-04-28 18:38:16 by Eclipse SUMO marouter Version 1.16.0
<configuration xmlns:xsi="http://www.w3.org/2001/XMLSchema-instance" xsi:noNamespaceSchemaLocation="http://sumo.dlr.de/xsd/marouterConfiguration.xsd">

    <input>
        <net-file value="./configurations/maps/Random_English.net.xml"/>
        <route-files value="./configurations/Rounds/Random_English.net.xml-test_R-4/Trips_File.rou.xml"/>
    </input>

    <output>
        <output-file value="./021/Trips_File_021.rou.xml"/>
    </output>

    <processing>
        <max-iterations value="22"/>
    </processing>

</configuration>
-->

<routes xmlns:xsi="http://www.w3.org/2001/XMLSchema-instance" xsi:noNamespaceSchemaLocation="http://sumo.dlr.de/xsd/routes_file.xsd">
    <vehicle id="2" depart="0.00" type="DEFAULT_VEHTYPE" fromTaz="-3252" toTaz="-1373" departLane="free" departSpeed="max">
        <routeDistribution>
            <route cost="124.79" probability="1.00000000" edges="-3252 -848 -650 674 -837 -2200 -1882 -1523 -1429 1427 -1373"/>
        </routeDistribution>
    </vehicle>
    <vehicle id="3" depart="0.00" type="DEFAULT_VEHTYPE" fromTaz="3761" toTaz="-3093" departLane="free" departSpeed="max">
        <routeDistribution>
            <route cost="276.94" probability="1.00000000" edges="3761 -4495 -2903 -2423 -2158 -867 -618 -579 -383 -128 -25 17 -13 15 119 330 -2200 -1882 -1774 1775 1935 2173 2477 -3093"/>
        </routeDistribution>
    </vehicle>
    <vehicle id="4" depart="3.00" type="DEFAULT_VEHTYPE" fromTaz="-2183" toTaz="349" departLane="free" departSpeed="max">
        <routeDistribution>
            <route cost="163.43" probability="1.00000000" edges="-2183 -1935 -1775 1774 1882 2200 -330 -119 -15 13 -17 25 210 349"/>
        </routeDistribution>
    </vehicle>
    <vehicle id="5" depart="3.00" type="DEFAULT_VEHTYPE" fromTaz="4467" toTaz="2895" departLane="free" departSpeed="max">
        <routeDistribution>
            <route cost="63.68" probability="1.00000000" edges="4467 -4467 -3742 -2895 2895"/>
        </routeDistribution>
    </vehicle>
    <vehicle id="6" depart="4.00" type="DEFAULT_VEHTYPE" fromTaz="-732" toTaz="4474" departLane="free" departSpeed="max">
        <routeDistribution>
            <route cost="176.01" probability="1.00000000" edges="-732 -625 -319 -38 -17 25 128 383 579 618 2439 2979 -3764 -2969 2963 -4474 4474"/>
        </routeDistribution>
    </vehicle>
    <vehicle id="7" depart="5.00" type="DEFAULT_VEHTYPE" fromTaz="-504" toTaz="1029" departLane="free" departSpeed="max">
        <routeDistribution>
            <route cost="84.18" probability="1.00000000" edges="-504 -336 -123 -19 -9 11 728 1029"/>
        </routeDistribution>
    </vehicle>
    <vehicle id="8" depart="6.00" type="DEFAULT_VEHTYPE" fromTaz="138" toTaz="-2607" departLane="free" departSpeed="max">
        <routeDistribution>
            <route cost="137.28" probability="1.00000000" edges="138 -138 -25 17 38 319 639 876 -1535 -1533 2278 -2607"/>
        </routeDistribution>
    </vehicle>
    <vehicle id="9" depart="7.00" type="DEFAULT_VEHTYPE" fromTaz="612" toTaz="642" departLane="free" departSpeed="max">
        <routeDistribution>
            <route cost="111.04" probability="1.00000000" edges="612 1005 -1029 -728 -11 3 15 119 332 592 642"/>
        </routeDistribution>
    </vehicle>
    <vehicle id="11" depart="8.00" type="DEFAULT_VEHTYPE" fromTaz="1359" toTaz="1798" departLane="free" departSpeed="max">
        <routeDistribution>
            <route cost="69.75" probability="1.00000000" edges="1359 -1359 1363 1429 1523 1798"/>
        </routeDistribution>
    </vehicle>
    <vehicle id="10" depart="8.00" type="DEFAULT_VEHTYPE" fromTaz="3734" toTaz="1373" departLane="free" departSpeed="max">
        <routeDistribution>
            <route cost="184.45" probability="1.00000000" edges="3734 -3734 -2876 -569 -365 -344 -125 121 326 -313 319 639 876 -1359 1373"/>
        </routeDistribution>
    </vehicle>
    <vehicle id="13" depart="12.00" type="DEFAULT_VEHTYPE" fromTaz="-504" toTaz="3740" departLane="free" departSpeed="max">
        <routeDistribution>
            <route cost="147.18" probability="0.18181818" edges="-504 -336 -123 125 -126 128 383 579 614 2149 2421 2881 3740"/>
            <route cost="147.17" probability="0.81818182" edges="-504 -336 -123 125 344 -349 585 -613 614 2149 2421 2881 3740"/>
        </routeDistribution>
    </vehicle>
    <vehicle id="12" depart="12.00" type="DEFAULT_VEHTYPE" fromTaz="3162" toTaz="2202" departLane="free" departSpeed="max">
        <routeDistribution>
            <route cost="184.82" probability="1.00000000" edges="3162 -3772 3773 -3252 -848 -650 674 -837 -732 -625 639 880 -1767 1930 2168 -2202 2202"/>
        </routeDistribution>
    </vehicle>
    <vehicle id="14" depart="13.00" type="DEFAULT_VEHTYPE" fromTaz="-684" toTaz="3835" departLane="free" departSpeed="max">
        <routeDistribution>
            <route cost="131.92" probability="1.00000000" edges="-684 684 2289 2756 3439 2166 2168 -2202 2206 2494 3835"/>
        </routeDistribution>
    </vehicle>
    <vehicle id="15" depart="14.00" type="DEFAULT_VEHTYPE" fromTaz="2188" toTaz="612" departLane="free" departSpeed="max">
        <routeDistribution>
            <route cost="190.58" probability="1.00000000" edges="2188 -2006 -1942 -1883 -1526 1524 1533 1535 -876 -639 -319 -38 -17 25 128 383 577 612"/>
        </routeDistribution>
    </vehicle>
    <vehicle id="17" depart="16.00" type="DEFAULT_VEHTYPE" fromTaz="2453" toTaz="326" departLane="free" departSpeed="max">
        <routeDistribution>
            <route cost="157.32" probability="1.00000000" edges="2453 -2453 -2173 -1935 -1775 1774 1882 2200 -330 -119 117 313 -326 326"/>
        </routeDistribution>
    </vehicle>
    <vehicle id="16" depart="16.00" type="DEFAULT_VEHTYPE" fromTaz="492" toTaz="-730" departLane="free" departSpeed="max">
        <routeDistribution>
            <route cost="104.59" probability="1.00000000" edges="492 570 -125 121 326 -313 319 639 -730"/>
        </routeDistribution>
    </vehicle>
    <vehicle id="18" depart="17.00" type="DEFAULT_VEHTYPE" fromTaz="1501" toTaz="-125" departLane="free" departSpeed="max">
        <routeDistribution>
            <route cost="133.70" probability="1.00000000" edges="1501 1774 1882 2200 -330 -119 117 313 -326 -121 125 -125"/>
        </routeDistribution>
    </vehicle>
    <vehicle id="19" depart="18.00" type="DEFAULT_VEHTYPE" fromTaz="-119" toTaz="-2300" departLane="free" departSpeed="max">
        <routeDistribution>
            <route cost="88.49" probability="1.00000000" edges="-119 117 325 589 1057 2300 -2300"/>
        </routeDistribution>
    </vehicle>
    <vehicle id="20" depart="19.00" type="DEFAULT_VEHTYPE" fromTaz="-2421" toTaz="1930" departLane="free" departSpeed="max">
        <routeDistribution>
            <route cost="163.86" probability="0.22727273" edges="-2421 -2149 -614 -579 -383 -128 126 -125 123 338 523 -1415 -1357 -1767 1930"/>
            <route cost="163.65" probability="0.77272727" edges="-2421 -2149 -614 613 -585 349 -344 -125 123 338 523 -1415 -1357 -1767 1930"/>
        </routeDistribution>
    </vehicle>
    <vehicle id="22" depart="20.00" type="DEFAULT_VEHTYPE" fromTaz="-3435" toTaz="4467" departLane="free" departSpeed="max">
        <routeDistribution>
            <route cost="214.79" probability="0.18181818" edges="-3435 -2732 -2289 -684 -597 -505 -338 -123 125 -126 128 383 579 618 867 2158 2423 2895 3742 4467"/>
            <route cost="214.77" probability="0.81818182" edges="-3435 -2732 -2289 -684 -597 -505 -338 -123 125 344 -349 585 -613 618 867 2158 2423 2895 3742 4467"/>
        </routeDistribution>
    </vehicle>
    <vehicle id="21" depart="20.00" type="DEFAULT_VEHTYPE" fromTaz="1029" toTaz="11" departLane="free" departSpeed="max">
        <routeDistribution>
            <route cost="49.20" probability="1.00000000" edges="1029 -1029 -728 -11 11"/>
        </routeDistribution>
    </vehicle>
    <vehicle id="23" depart="21.00" type="DEFAULT_VEHTYPE" fromTaz="-125" toTaz="608" departLane="free" departSpeed="max">
        <routeDistribution>
            <route cost="80.31" probability="1.00000000" edges="-125 125 -126 128 383 577 608"/>
        </routeDistribution>
    </vehicle>
    <vehicle id="25" depart="22.00" type="DEFAULT_VEHTYPE" fromTaz="-492" toTaz="-2724" departLane="free" departSpeed="max">
        <routeDistribution>
            <route cost="160.91" probability="1.00000000" edges="-492 -361 -336 338 517 -588 -325 -117 119 332 592 650 2724 3920 -3920 -2724"/>
        </routeDistribution>
    </vehicle>
    <vehicle id="24" depart="22.00" type="DEFAULT_VEHTYPE" fromTaz="2979" toTaz="-11" departLane="free" departSpeed="max">
        <routeDistribution>
            <route cost="114.19" probability="1.00000000" edges="2979 -2979 -2439 -618 614 -608 612 1005 -1029 -728 -11"/>
        </routeDistribution>
    </vehicle>
    <vehicle id="27" depart="23.00" type="DEFAULT_VEHTYPE" fromTaz="-330" toTaz="-123" departLane="free" departSpeed="max">
        <routeDistribution>
            <route cost="75.26" probability="1.00000000" edges="-330 -119 117 325 588 -517 -338 -123"/>
        </routeDistribution>
    </vehicle>
    <vehicle id="26" depart="23.00" type="DEFAULT_VEHTYPE" fromTaz="4527" toTaz="2453" departLane="free" departSpeed="max">
        <routeDistribution>
            <route cost="275.27" probability="0.13636364" edges="4527 -4527 -2961 -2423 -2158 -867 -618 -579 -383 -128 -25 17 -13 15 119 330 -2200 -1882 -1774 1775 1935 2173 2453"/>
            <route cost="274.01" probability="0.86363636" edges="4527 -4527 -3740 3739 -3737 -1404 -1345 -1342 -1093 -1029 -728 -11 3 15 119 330 -2200 -1882 -1774 1775 1935 2173 2453"/>
        </routeDistribution>
    </vehicle>
    <vehicle id="29" depart="24.00" type="DEFAULT_VEHTYPE" fromTaz="119" toTaz="64" departLane="free" departSpeed="max">
        <routeDistribution>
            <route cost="41.66" probability="1.00000000" edges="119 -119 -15 13 64"/>
        </routeDistribution>
    </vehicle>
    <vehicle id="28" depart="24.00" type="DEFAULT_VEHTYPE" fromTaz="2756" toTaz="2206" departLane="free" departSpeed="max">
        <routeDistribution>
            <route cost="79.98" probability="1.00000000" edges="2756 3439 2166 2168 -2202 2206"/>
        </routeDistribution>
    </vehicle>
    <vehicle id="31" depart="26.00" type="DEFAULT_VEHTYPE" fromTaz="-1532" toTaz="-25" departLane="free" departSpeed="max">
        <routeDistribution>
            <route cost="129.60" probability="2.00000000" edges="-1532 1524 1533 1535 -876 -639 -319 -38 -17 25 -25"/>
        </routeDistribution>
    </vehicle>
    <vehicle id="30" depart="26.00" type="DEFAULT_VEHTYPE" fromTaz="2439" toTaz="3093" departLane="free" departSpeed="max">
        <routeDistribution>
            <route cost="220.95" probability="1.00000000" edges="2439 -2439 -618 -579 -383 -128 -25 17 -13 15 119 330 -2200 -1882 -1774 1775 1935 2173 2453 3093"/>
        </routeDistribution>
    </vehicle>
    <vehicle id="32" depart="26.00" type="DEFAULT_VEHTYPE" fromTaz="3779" toTaz="3719" departLane="free" departSpeed="max">
        <routeDistribution>
            <route cost="180.36" probability="1.00000000" edges="3779 -2482 -2185 2186 2200 -330 -119 -15 13 -17 25 210 585 -601 3719"/>
        </routeDistribution>
    </vehicle>
    <vehicle id="33" depart="27.00" type="DEFAULT_VEHTYPE" fromTaz="-2112" toTaz="210" departLane="free" departSpeed="max">
        <routeDistribution>
            <route cost="146.60" probability="1.00000000" edges="-2112 -1891 -1526 1524 1533 1535 -876 -639 -319 -38 -17 25 210"/>
        </routeDistribution>
    </vehicle>
    <vehicle id="34" depart="28.00" type="DEFAULT_VEHTYPE" fromTaz="-365" toTaz="365" departLane="free" departSpeed="max">
        <routeDistribution>
            <route cost="29.12" probability="1.00000000" edges="-365 365"/>
        </routeDistribution>
    </vehicle>
    <vehicle id="36" depart="29.00" type="DEFAULT_VEHTYPE" fromTaz="-11" toTaz="-639" departLane="free" departSpeed="max">
        <routeDistribution>
            <route cost="82.18" probability="1.00000000" edges="-11 3 15 117 319 639 -639"/>
        </routeDistribution>
    </vehicle>
    <vehicle id="35" depart="29.00" type="DEFAULT_VEHTYPE" fromTaz="1493" toTaz="-19" departLane="free" departSpeed="max">
        <routeDistribution>
            <route cost="91.50" probability="1.00000000" edges="1493 1767 1357 1415 -523 -338 -123 -19"/>
        </routeDistribution>
    </vehicle>
    <vehicle id="37" depart="30.00" type="DEFAULT_VEHTYPE" fromTaz="330" toTaz="-1429" departLane="free" departSpeed="max">
        <routeDistribution>
            <route cost="62.57" probability="1.00000000" edges="330 -2200 -1882 -1523 -1429"/>
        </routeDistribution>
    </vehicle>
    <vehicle id="39" depart="31.00" type="DEFAULT_VEHTYPE" fromTaz="-608" toTaz="-1429" departLane="free" departSpeed="max">
        <routeDistribution>
            <route cost="154.38" probability="1.00000000" edges="-608 612 1005 -1029 -728 -11 3 15 119 330 -2200 -1882 -1523 -1429"/>
        </routeDistribution>
    </vehicle>
    <vehicle id="38" depart="31.00" type="DEFAULT_VEHTYPE" fromTaz="123" toTaz="650" departLane="free" departSpeed="max">
        <routeDistribution>
            <route cost="89.16" probability="1.00000000" edges="123 338 517 -588 -325 -117 119 332 592 650"/>
        </routeDistribution>
    </vehicle>
    <vehicle id="40" depart="31.00" type="DEFAULT_VEHTYPE" fromTaz="4539" toTaz="-3847" departLane="free" departSpeed="max">
        <routeDistribution>
            <route cost="260.67" probability="1.00000000" edges="4539 -4539 -4257 -3611 -1464 -1388 -533 -365 -344 -125 123 338 523 -1415 -1357 -1767 1930 2168 -2202 2206 2502 3131 3847 -3847"/>
        </routeDistribution>
    </vehicle>
    <vehicle id="41" depart="33.00" type="DEFAULT_VEHTYPE" fromTaz="-3719" toTaz="-3885" departLane="free" departSpeed="max">
        <routeDistribution>
            <route cost="201.63" probability="1.00000000" edges="-3719 -535 -365 -344 -125 123 338 523 -1415 -1357 -1767 1930 2168 -2202 2201 3145 3885 -3885"/>
        </routeDistribution>
    </vehicle>
    <vehicle id="42" depart="33.00" type="DEFAULT_VEHTYPE" fromTaz="-492" toTaz="-3162" departLane="free" departSpeed="max">
        <routeDistribution>
            <route cost="133.64" probability="1.00000000" edges="-492 -361 -336 -123 -19 -9 11 698 1027 1201 3772 -3162"/>
        </routeDistribution>
    </vehicle>
    <vehicle id="43" depart="33.00" type="DEFAULT_VEHTYPE" fromTaz="674" toTaz="-1526" departLane="free" departSpeed="max">
        <routeDistribution>
            <route cost="103.39" probability="1.00000000" edges="674 -837 -2200 -1882 -1523 1517 1783 -1883 -1526"/>
        </routeDistribution>
    </vehicle>
    <vehicle id="44" depart="34.00" type="DEFAULT_VEHTYPE" fromTaz="2766" toTaz="1493" departLane="free" departSpeed="max">
        <routeDistribution>
            <route cost="52.53" probability="1.00000000" edges="2766 -3438 3439 -1483 1493"/>
        </routeDistribution>
    </vehicle>
    <vehicle id="46" depart="35.00" type="DEFAULT_VEHTYPE" fromTaz="-330" toTaz="3799" departLane="free" departSpeed="max">
        <routeDistribution>
            <route cost="111.99" probability="1.00000000" edges="-330 330 -2200 -2186 2185 2482 -3779 3799"/>
        </routeDistribution>
    </vehicle>
    <vehicle id="47" depart="35.00" type="DEFAULT_VEHTYPE" fromTaz="1930" toTaz="-2210" departLane="free" departSpeed="max">
        <routeDistribution>
            <route cost="76.46" probability="1.00000000" edges="1930 2168 -2128 2120 2210 -2210"/>
        </routeDistribution>
    </vehicle>
    <vehicle id="45" depart="35.00" type="DEFAULT_VEHTYPE" fromTaz="1941" toTaz="-4494" departLane="free" departSpeed="max">
        <routeDistribution>
            <route cost="222.33" probability="1.00000000" edges="1941 2186 2200 -330 -119 -15 13 -17 25 128 383 579 618 2439 2979 -3764 -2969 2963 -4474 4494 -4494"/>
        </routeDistribution>
    </vehicle>
    <vehicle id="48" depart="36.00" type="DEFAULT_VEHTYPE" fromTaz="-2285" toTaz="642" departLane="free" departSpeed="max">
        <routeDistribution>
            <route cost="36.29" probability="1.00000000" edges="-2285 -674 642"/>
        </routeDistribution>
    </vehicle>
    <vehicle id="51" depart="37.00" type="DEFAULT_VEHTYPE" fromTaz="3095" toTaz="-2289" departLane="free" departSpeed="max">
        <routeDistribution>
            <route cost="172.01" probability="1.00000000" edges="3095 -3095 -2453 2449 -2194 -1950 -1942 -1883 1891 2128 -2168 -2166 -3439 -2756 -2289"/>
        </routeDistribution>
    </vehicle>
    <vehicle id="50" depart="37.00" type="DEFAULT_VEHTYPE" fromTaz="4539" toTaz="-117" departLane="free" departSpeed="max">
        <routeDistribution>
            <route cost="128.87" probability="1.00000000" edges="4539 -4539 -4257 -3611 -1464 -1388 -533 -365 -344 -125 121 326 -313 -117"/>
        </routeDistribution>
    </vehicle>
    <vehicle id="49" depart="37.00" type="DEFAULT_VEHTYPE" fromTaz="882" toTaz="-1033" departLane="free" departSpeed="max">
        <routeDistribution>
            <route cost="18.94" probability="1.00000000" edges="882 -1033"/>
        </routeDistribution>
    </vehicle>
    <vehicle id="52" depart="38.00" type="DEFAULT_VEHTYPE" fromTaz="3787" toTaz="876" departLane="free" departSpeed="max">
        <routeDistribution>
            <route cost="137.81" probability="1.00000000" edges="3787 -3787 -3091 -2171 -1935 -1775 -1501 -1429 -1363 1359 -876 876"/>
        </routeDistribution>
    </vehicle>
    <vehicle id="54" depart="40.00" type="DEFAULT_VEHTYPE" fromTaz="1359" toTaz="2714" departLane="free" departSpeed="max">
        <routeDistribution>
            <route cost="111.59" probability="1.00000000" edges="1359 -876 -639 625 732 837 -674 642 846 2714"/>
        </routeDistribution>
    </vehicle>
    <vehicle id="55" depart="40.00" type="DEFAULT_VEHTYPE" fromTaz="2486" toTaz="2502" departLane="free" departSpeed="max">
        <routeDistribution>
            <route cost="146.92" probability="1.00000000" edges="2486 -3122 -2183 2173 2449 -2194 -1950 -1942 -1883 1891 2110 2206 2502"/>
        </routeDistribution>
    </vehicle>
    <vehicle id="53" depart="40.00" type="DEFAULT_VEHTYPE" fromTaz="336" toTaz="-3252" departLane="free" departSpeed="max">
        <routeDistribution>
            <route cost="111.86" probability="1.00000000" edges="336 -336 -123 -19 -9 11 698 1027 1201 3773 -3252"/>
        </routeDistribution>
    </vehicle>
    <vehicle id="56" depart="41.00" type="DEFAULT_VEHTYPE" fromTaz="-15" toTaz="-3162" departLane="free" departSpeed="max">
        <routeDistribution>
            <route cost="91.93" probability="1.00000000" edges="-15 -3 11 698 1027 1201 3772 -3162"/>
        </routeDistribution>
    </vehicle>
    <vehicle id="57" depart="41.00" type="DEFAULT_VEHTYPE" fromTaz="2969" toTaz="1357" departLane="free" departSpeed="max">
        <routeDistribution>
            <route cost="158.99" probability="1.00000000" edges="2969 3764 -2979 -2873 -2412 -535 -365 -344 -125 123 338 523 -1415 -1357 1357"/>
        </routeDistribution>
    </vehicle>
    <vehicle id="58" depart="43.00" type="DEFAULT_VEHTYPE" fromTaz="-2714" toTaz="-1494" departLane="free" departSpeed="max">
        <routeDistribution>
            <route cost="119.53" probability="1.00000000" edges="-2714 -846 -642 674 -837 -732 -625 639 876 -1535 -1494"/>
        </routeDistribution>
    </vehicle>
    <vehicle id="59" depart="45.00" type="DEFAULT_VEHTYPE" fromTaz="-1798" toTaz="597" departLane="free" departSpeed="max">
        <routeDistribution>
            <route cost="118.33" probability="1.00000000" edges="-1798 1882 2200 -330 -119 117 325 588 -517 505 597"/>
        </routeDistribution>
    </vehicle>
    <vehicle id="60" depart="45.00" type="DEFAULT_VEHTYPE" fromTaz="1343" toTaz="-2724" departLane="free" departSpeed="max">
        <routeDistribution>
            <route cost="103.28" probability="1.00000000" edges="1343 -1199 1201 3773 -3252 -848 2724 3920 -3920 -2724"/>
        </routeDistribution>
    </vehicle>
    <vehicle id="61" depart="46.00" type="DEFAULT_VEHTYPE" fromTaz="1373" toTaz="1483" departLane="free" departSpeed="max">
        <routeDistribution>
            <route cost="63.10" probability="1.00000000" edges="1373 1441 2278 -2447 -1493 1483"/>
        </routeDistribution>
    </vehicle>
    <vehicle id="62" depart="49.00" type="DEFAULT_VEHTYPE" fromTaz="732" toTaz="-608" departLane="free" departSpeed="max">
        <routeDistribution>
            <route cost="125.06" probability="1.00000000" edges="732 -330 -119 -15 13 -17 25 128 383 579 614 -608"/>
        </routeDistribution>
    </vehicle>
    <vehicle id="64" depart="50.00" type="DEFAULT_VEHTYPE" fromTaz="-2872" toTaz="3883" departLane="free" departSpeed="max">
        <routeDistribution>
            <route cost="213.01" probability="1.00000000" edges="-2872 -533 -365 -344 -125 123 338 523 -1415 -1357 -1767 1930 2168 -2202 2206 2502 3137 3883"/>
        </routeDistribution>
    </vehicle>
    <vehicle id="63" depart="50.00" type="DEFAULT_VEHTYPE" fromTaz="2168" toTaz="3093" departLane="free" departSpeed="max">
        <routeDistribution>
            <route cost="99.25" probability="1.00000000" edges="2168 -2128 -1891 1883 1942 1950 2194 -2449 2453 3093"/>
        </routeDistribution>
    </vehicle>
    <vehicle id="65" depart="52.00" type="DEFAULT_VEHTYPE" fromTaz="-3093" toTaz="-650" departLane="free" departSpeed="max">
        <routeDistribution>
            <route cost="147.06" probability="1.00000000" edges="-3093 -2453 -2173 -1935 -1775 1774 1882 2200 837 -674 650 -650"/>
        </routeDistribution>
    </vehicle>
    <vehicle id="67" depart="55.00" type="DEFAULT_VEHTYPE" fromTaz="116" toTaz="1883" departLane="free" departSpeed="max">
        <routeDistribution>
            <route cost="97.42" probability="1.00000000" edges="116 -313 319 639 876 -1535 -1533 -1524 1526 1883"/>
        </routeDistribution>
    </vehicle>
    <vehicle id="66" depart="55.00" type="DEFAULT_VEHTYPE" fromTaz="2206" toTaz="17" departLane="free" departSpeed="max">
        <routeDistribution>
            <route cost="160.61" probability="1.00000000" edges="2206 -2206 2202 -2168 -1930 1767 1357 1415 -523 -338 -123 -19 17"/>
        </routeDistribution>
    </vehicle>
    <vehicle id="68" depart="58.00" type="DEFAULT_VEHTYPE" fromTaz="-3739" toTaz="-614" departLane="free" departSpeed="max">
        <routeDistribution>
            <route cost="60.94" probability="1.00000000" edges="-3739 -2881 -2421 -2149 -614"/>
        </routeDistribution>
    </vehicle>
    <vehicle id="69" depart="59.00" type="DEFAULT_VEHTYPE" fromTaz="-2873" toTaz="3772" departLane="free" departSpeed="max">
        <routeDistribution>
            <route cost="124.63" probability="1.00000000" edges="-2873 2873 -2439 -618 614 -608 612 1005 1093 1343 -1199 1201 3772"/>
        </routeDistribution>
    </vehicle>
    <vehicle id="71" depart="60.00" type="DEFAULT_VEHTYPE" fromTaz="3835" toTaz="496" departLane="free" departSpeed="max">
        <routeDistribution>
            <route cost="174.02" probability="1.00000000" edges="3835 -3835 -2494 -2206 2202 -2168 -1930 1767 1357 1415 -523 -338 336 361 496"/>
        </routeDistribution>
    </vehicle>
    <vehicle id="70" depart="60.00" type="DEFAULT_VEHTYPE" fromTaz="4027" toTaz="3769" departLane="free" departSpeed="max">
        <routeDistribution>
            <route cost="188.21" probability="1.00000000" edges="4027 -4027 -3437 -2732 -2289 -684 -597 -505 -338 -123 125 344 365 535 2412 2873 2979 3769"/>
        </routeDistribution>
    </vehicle>
    <vehicle id="74" depart="61.00" type="DEFAULT_VEHTYPE" fromTaz="-15" toTaz="2194" departLane="free" departSpeed="max">
        <routeDistribution>
            <route cost="127.17" probability="1.00000000" edges="-15 15 119 330 -2200 -1882 -1523 1517 1797 1950 2194"/>
        </routeDistribution>
    </vehicle>
    <vehicle id="72" depart="61.00" type="DEFAULT_VEHTYPE" fromTaz="-2188" toTaz="-1533" departLane="free" departSpeed="max">
        <routeDistribution>
            <route cost="76.30" probability="1.00000000" edges="-2188 -1950 -1942 -1883 -1526 1524 1533 -1533"/>
        </routeDistribution>
    </vehicle>
    <vehicle id="75" depart="61.00" type="DEFAULT_VEHTYPE" fromTaz="-3119" toTaz="-3162" departLane="free" departSpeed="max">
        <routeDistribution>
            <route cost="183.12" probability="1.00000000" edges="-3119 -2453 -2173 -1935 -1775 1774 1882 2200 837 -674 650 848 3252 -3773 3772 -3162"/>
        </routeDistribution>
    </vehicle>
    <vehicle id="73" depart="61.00" type="DEFAULT_VEHTYPE" fromTaz="1895" toTaz="608" departLane="free" departSpeed="max">
        <routeDistribution>
            <route cost="178.94" probability="1.00000000" edges="1895 -1895 -1526 1524 1533 1535 -876 -639 -319 -38 -17 25 128 383 577 608"/>
        </routeDistribution>
    </vehicle>
    <vehicle id="79" depart="63.00" type="DEFAULT_VEHTYPE" fromTaz="-1093" toTaz="2724" departLane="free" departSpeed="max">
        <routeDistribution>
            <route cost="88.59" probability="1.00000000" edges="-1093 1093 1343 -1199 1201 3773 -3252 -848 2724"/>
        </routeDistribution>
    </vehicle>
    <vehicle id="76" depart="63.00" type="DEFAULT_VEHTYPE" fromTaz="-2120" toTaz="-1373" departLane="free" departSpeed="max">
        <routeDistribution>
            <route cost="59.10" probability="1.00000000" edges="-2120 -1891 -1526 -1431 -1373"/>
        </routeDistribution>
    </vehicle>
    <vehicle id="77" depart="63.00" type="DEFAULT_VEHTYPE" fromTaz="-597" toTaz="-1950" departLane="free" departSpeed="max">
        <routeDistribution>
            <route cost="136.99" probability="1.00000000" edges="-597 -505 523 -1415 -1357 1494 -1533 -1524 1526 1883 1942 1950 -1950"/>
        </routeDistribution>
    </vehicle>
    <vehicle id="78" depart="63.00" type="DEFAULT_VEHTYPE" fromTaz="1373" toTaz="2714" departLane="free" departSpeed="max">
        <routeDistribution>
            <route cost="131.90" probability="1.00000000" edges="1373 -1427 1429 1523 1882 2200 837 -674 642 846 2714"/>
        </routeDistribution>
    </vehicle>
    <vehicle id="81" depart="64.00" type="DEFAULT_VEHTYPE" fromTaz="-1501" toTaz="2289" departLane="free" departSpeed="max">
        <routeDistribution>
            <route cost="124.52" probability="1.00000000" edges="-1501 -1429 1427 1441 2278 -2447 -1493 1483 -3439 -2756 -2289 2289"/>
        </routeDistribution>
    </vehicle>
    <vehicle id="82" depart="64.00" type="DEFAULT_VEHTYPE" fromTaz="-1930" toTaz="119" departLane="free" departSpeed="max">
        <routeDistribution>
            <route cost="79.33" probability="1.00000000" edges="-1930 1767 -880 -639 -319 -117 119"/>
        </routeDistribution>
    </vehicle>
    <vehicle id="80" depart="64.00" type="DEFAULT_VEHTYPE" fromTaz="125" toTaz="-344" departLane="free" departSpeed="max">
        <routeDistribution>
            <route cost="28.22" probability="1.00000000" edges="125 344 -344"/>
        </routeDistribution>
    </vehicle>
    <vehicle id="85" depart="65.00" type="DEFAULT_VEHTYPE" fromTaz="-313" toTaz="-3739" departLane="free" departSpeed="max">
        <routeDistribution>
            <route cost="135.34" probability="1.00000000" edges="-313 -117 -15 -3 11 728 1029 1093 1342 1345 1404 3737 -3739"/>
        </routeDistribution>
    </vehicle>
    <vehicle id="84" depart="65.00" type="DEFAULT_VEHTYPE" fromTaz="-333" toTaz="-3847" departLane="free" departSpeed="max">
        <routeDistribution>
            <route cost="213.36" probability="1.00000000" edges="-333 -7 3 15 117 319 639 880 -1767 1930 2168 -2202 2206 2502 3131 3847 -3847"/>
        </routeDistribution>
    </vehicle>
    <vehicle id="83" depart="65.00" type="DEFAULT_VEHTYPE" fromTaz="-3740" toTaz="3497" departLane="free" departSpeed="max">
        <routeDistribution>
            <route cost="176.42" probability="0.22727273" edges="-3740 -2881 -2421 -2149 -614 -579 -383 -128 126 -125 123 338 523 -4050 -3497 3497"/>
            <route cost="176.21" probability="0.77272727" edges="-3740 -2881 -2421 -2149 -614 613 -585 349 -344 -125 123 338 523 -4050 -3497 3497"/>
        </routeDistribution>
    </vehicle>
    <vehicle id="86" depart="66.00" type="DEFAULT_VEHTYPE" fromTaz="1523" toTaz="4467" departLane="free" departSpeed="max">
        <routeDistribution>
            <route cost="223.37" probability="1.00000000" edges="1523 1882 2200 -330 -119 -15 13 -17 25 128 383 579 618 867 2158 2423 2895 3742 4467"/>
        </routeDistribution>
    </vehicle>
    <vehicle id="87" depart="67.00" type="DEFAULT_VEHTYPE" fromTaz="2477" toTaz="1429" departLane="free" departSpeed="max">
        <routeDistribution>
            <route cost="89.01" probability="1.00000000" edges="2477 -3093 -2453 2449 -2194 -1950 -1797 -1517 -1429 1429"/>
        </routeDistribution>
    </vehicle>
    <vehicle id="88" depart="68.00" type="DEFAULT_VEHTYPE" fromTaz="379" toTaz="-338" departLane="free" departSpeed="max">
        <routeDistribution>
            <route cost="56.33" probability="1.00000000" edges="379 570 -125 123 338 -338"/>
        </routeDistribution>
    </vehicle>
    <vehicle id="89" depart="69.00" type="DEFAULT_VEHTYPE" fromTaz="3121" toTaz="-4257" departLane="free" departSpeed="max">
        <routeDistribution>
            <route cost="206.12" probability="1.00000000" edges="3121 -2482 -2185 2186 2200 -330 -119 117 313 -326 -121 125 344 365 533 1388 1464 3611 4257 -4257"/>
        </routeDistribution>
    </vehicle>
    <vehicle id="90" depart="70.00" type="DEFAULT_VEHTYPE" fromTaz="1499" toTaz="-2425" departLane="free" departSpeed="max">
        <routeDistribution>