<?xml version="1.0" ?>
<routes xmlns:xsi="&quot;http://www.w3.org/2001/XMLSchema-instance&quot;" xsi:noNamespaceSchemaLocation="&quot;http://sumo.dlr.de/xsd/routes_file.xsd&quot;">
	<trip id="2" depart="0" from="422685671#2" to="-597602756#0"/>
	<trip id="3" depart="1" from="422685671#2" to="260998164#0"/>
	<trip id="4" depart="1" from="318908683#0" to="-597602756#0"/>
	<trip id="5" depart="3" from="422685671#2" to="918280984"/>
	<trip id="6" depart="4" from="318908683#0" to="260998164#0"/>
	<trip id="7" depart="5" from="318908683#0" to="260998164#0"/>
	<trip id="8" depart="6" from="422685671#2" to="422688976#1"/>
	<trip id="9" depart="7" from="597602756#0" to="-318908683#1"/>
	<trip id="10" depart="7" from="597602756#0" to="918280984"/>
	<trip id="11" depart="7" from="422688973" to="-597602753#1"/>
	<trip id="12" depart="7" from="318908683#0" to="918280984"/>
	<trip id="13" depart="8" from="422685671#2" to="-105681660#20"/>
	<trip id="14" depart="9" from="-260998164#3" to="422688976#1"/>
	<trip id="15" depart="9" from="318908683#0" to="422688976#1"/>
	<trip id="16" depart="11" from="918280985" to="-105681660#20"/>
	<trip id="17" depart="12" from="918280985" to="-597602753#1"/>
	<trip id="18" depart="14" from="597602756#0" to="-318908683#1"/>
	<trip id="19" depart="15" from="597602756#0" to="918280984"/>
	<trip id="20" depart="16" from="918280985" to="-597602756#0"/>
	<trip id="21" depart="18" from="422685671#2" to="260998164#0"/>
	<trip id="22" depart="19" from="422685671#2" to="-105681660#20"/>
	<trip id="23" depart="19" from="918280985" to="-105681660#20"/>
	<trip id="24" depart="21" from="422688973" to="260998164#0"/>
	<trip id="25" depart="22" from="422688973" to="15374898#0-AddedOffRampEdge"/>
	<trip id="26" depart="22" from="422685671#2" to="-105681660#20"/>
	<trip id="27" depart="25" from="597602753#0" to="918280984"/>
	<trip id="28" depart="30" from="918280985" to="-318908683#1"/>
	<trip id="29" depart="30" from="422688973" to="-105681660#20"/>
	<trip id="30" depart="31" from="918280985" to="-105681660#20"/>
	<trip id="31" depart="32" from="318908683#0" to="422688976#1"/>
	<trip id="32" depart="32" from="597602756#0" to="918280984"/>
	<trip id="33" depart="32" from="422688973" to="-597602753#1"/>
	<trip id="34" depart="33" from="597602753#0" to="-318908683#1"/>
	<trip id="35" depart="36" from="918280985" to="15374898#0-AddedOffRampEdge"/>
	<trip id="36" depart="37" from="422685671#2" to="260998164#0"/>
	<trip id="37" depart="39" from="597602753#0" to="260998164#0"/>
	<trip id="38" depart="39" from="918280985" to="15374898#0-AddedOffRampEdge"/>
	<trip id="39" depart="40" from="597602756#0" to="-105681660#20"/>
	<trip id="40" depart="41" from="422685671#2" to="-597602753#1"/>
	<trip id="41" depart="41" from="597602753#0" to="918280984"/>
	<trip id="42" depart="41" from="918280985" to="-597602753#1"/>
	<trip id="43" depart="43" from="318908683#0" to="918280984"/>
	<trip id="44" depart="45" from="-260998164#3" to="-318908683#1"/>
	<trip id="45" depart="45" from="918280985" to="-105681660#20"/>
	<trip id="46" depart="49" from="597602753#0" to="-597602756#0"/>
	<trip id="47" depart="49" from="597602753#0" to="-105681660#20"/>
	<trip id="48" depart="53" from="597602756#0" to="15374898#0-AddedOffRampEdge"/>
	<trip id="49" depart="53" from="597602756#0" to="918280984"/>
	<trip id="50" depart="53" from="597602756#0" to="-105681660#20"/>
	<trip id="51" depart="54" from="918280985" to="-597602753#1"/>
	<trip id="52" depart="57" from="422685671#2" to="918280984"/>
	<trip id="53" depart="57" from="597602756#0" to="422688976#1"/>
	<trip id="54" depart="59" from="597602756#0" to="260998164#0"/>
	<trip id="55" depart="61" from="597602753#0" to="918280984"/>
	<trip id="56" depart="61" from="597602753#0" to="422688976#1"/>
	<trip id="57" depart="63" from="422685671#2" to="-597602756#0"/>
	<trip id="58" depart="64" from="318908683#0" to="422688976#1"/>
	<trip id="59" depart="66" from="597602753#0" to="-597602756#0"/>
	<trip id="60" depart="66" from="597602753#0" to="15374898#0-AddedOffRampEdge"/>
	<trip id="61" depart="67" from="422688973" to="-105681660#20"/>
	<trip id="62" depart="69" from="-260998164#3" to="-318908683#1"/>
	<trip id="63" depart="70" from="422688973" to="260998164#0"/>
	<trip id="64" depart="70" from="597602753#0" to="-597602756#0"/>
	<trip id="65" depart="71" from="-260998164#3" to="422688976#1"/>
	<trip id="66" depart="71" from="422688973" to="-318908683#1"/>
	<trip id="67" depart="72" from="597602753#0" to="-597602756#0"/>
	<trip id="68" depart="74" from="318908683#0" to="-597602753#1"/>
	<trip id="69" depart="74" from="422685671#2" to="-105681660#20"/>
	<trip id="70" depart="75" from="918280985" to="15374898#0-AddedOffRampEdge"/>
	<trip id="71" depart="75" from="597602753#0" to="918280984"/>
	<trip id="72" depart="76" from="597602753#0" to="-105681660#20"/>
	<trip id="73" depart="80" from="-260998164#3" to="-597602756#0"/>
	<trip id="74" depart="82" from="422688973" to="-597602753#1"/>
	<trip id="75" depart="82" from="-260998164#3" to="15374898#0-AddedOffRampEdge"/>
	<trip id="76" depart="82" from="597602756#0" to="918280984"/>
	<trip id="77" depart="83" from="597602753#0" to="-597602756#0"/>
	<trip id="78" depart="84" from="422685671#2" to="-597602756#0"/>
	<trip id="79" depart="84" from="318908683#0" to="-597602753#1"/>
	<trip id="80" depart="84" from="318908683#0" to="260998164#0"/>
	<trip id="81" depart="85" from="918280985" to="15374898#0-AddedOffRampEdge"/>
	<trip id="82" depart="86" from="-260998164#3" to="-597602756#0"/>
	<trip id="83" depart="86" from="318908683#0" to="422688976#1"/>
	<trip id="84" depart="86" from="105681660#12" to="15374898#0-AddedOffRampEdge"/>
	<trip id="85" depart="87" from="597602753#0" to="422688976#1"/>
	<trip id="86" depart="87" from="422688973" to="-318908683#1"/>
	<trip id="87" depart="87" from="597602753#0" to="15374898#0-AddedOffRampEdge"/>
	<trip id="88" depart="88" from="105681660#12" to="260998164#0"/>
	<trip id="89" depart="89" from="-260998164#3" to="-597602753#1"/>
	<trip id="90" depart="89" from="597602756#0" to="260998164#0"/>
	<trip id="91" depart="89" from="918280985" to="260998164#0"/>
	<trip id="92" depart="90" from="597602756#0" to="15374898#0-AddedOffRampEdge"/>
	<trip id="93" depart="93" from="422688973" to="260998164#0"/>
	<trip id="94" depart="94" from="105681660#12" to="-318908683#1"/>
	<trip id="95" depart="94" from="597602753#0" to="15374898#0-AddedOffRampEdge"/>
	<trip id="96" depart="98" from="422685671#2" to="-105681660#20"/>
	<trip id="97" depart="99" from="597602753#0" to="15374898#0-AddedOffRampEdge"/>
	<trip id="98" depart="99" from="918280985" to="15374898#0-AddedOffRampEdge"/>
	<trip id="99" depart="100" from="918280985" to="260998164#0"/>
	<trip id="100" depart="100" from="-260998164#3" to="422688976#1"/>
	<trip id="101" depart="102" from="-260998164#3" to="-597602756#0"/>
	<trip id="102" depart="103" from="105681660#12" to="-597602756#0"/>
	<trip id="103" depart="104" from="597602756#0" to="918280984"/>
	<trip id="104" depart="104" from="105681660#12" to="918280984"/>
	<trip id="105" depart="104" from="597602753#0" to="260998164#0"/>
	<trip id="106" depart="106" from="-260998164#3" to="-318908683#1"/>
	<trip id="107" depart="107" from="918280985" to="15374898#0-AddedOffRampEdge"/>
	<trip id="108" depart="108" from="597602753#0" to="-597602756#0"/>
	<trip id="109" depart="108" from="597602753#0" to="918280984"/>
	<trip id="110" depart="112" from="318908683#0" to="918280984"/>
	<trip id="111" depart="113" from="-260998164#3" to="-597602753#1"/>
	<trip id="112" depart="113" from="422685671#2" to="-105681660#20"/>
	<trip id="113" depart="113" from="597602753#0" to="-105681660#20"/>
	<trip id="114" depart="114" from="105681660#12" to="-597602753#1"/>
	<trip id="115" depart="115" from="105681660#12" to="422688976#1"/>
	<trip id="116" depart="115" from="-260998164#3" to="15374898#0-AddedOffRampEdge"/>
	<trip id="117" depart="116" from="597602753#0" to="918280984"/>
	<trip id="118" depart="116" from="597602753#0" to="918280984"/>
	<trip id="119" depart="117" from="-260998164#3" to="-105681660#20"/>
	<trip id="120" depart="118" from="918280985" to="260998164#0"/>
	<trip id="121" depart="118" from="-260998164#3" to="918280984"/>
	<trip id="122" depart="119" from="422685671#2" to="422688976#1"/>
	<trip id="123" depart="119" from="105681660#12" to="15374898#0-AddedOffRampEdge"/>
	<trip id="124" depart="120" from="-260998164#3" to="-105681660#20"/>
	<trip id="125" depart="120" from="-260998164#3" to="918280984"/>
	<trip id="126" depart="122" from="105681660#12" to="-318908683#1"/>
	<trip id="127" depart="123" from="422688973" to="260998164#0"/>
	<trip id="128" depart="123" from="422685671#2" to="918280984"/>
	<trip id="129" depart="126" from="918280985" to="15374898#0-AddedOffRampEdge"/>
	<trip id="130" depart="126" from="597602756#0" to="260998164#0"/>
	<trip id="131" depart="126" from="597602756#0" to="918280984"/>
	<trip id="132" depart="126" from="422685671#2" to="260998164#0"/>
	<trip id="133" depart="127" from="918280985" to="260998164#0"/>
	<trip id="134" depart="128" from="318908683#0" to="-597602756#0"/>
	<trip id="135" depart="130" from="918280985" to="-597602753#1"/>
	<trip id="136" depart="130" from="597602753#0" to="-597602756#0"/>
	<trip id="137" depart="131" from="318908683#0" to="918280984"/>
	<trip id="138" depart="132" from="422688973" to="-597602756#0"/>
	<trip id="139" depart="132" from="-260998164#3" to="-105681660#20"/>
	<trip id="140" depart="132" from="597602753#0" to="918280984"/>
	<trip id="141" depart="132" from="105681660#12" to="-318908683#1"/>
	<trip id="142" depart="132" from="597602756#0" to="918280984"/>
	<trip id="143" depart="132" from="597602753#0" to="-318908683#1"/>
	<trip id="144" depart="135" from="597602756#0" to="-105681660#20"/>
	<trip id="145" depart="135" from="918280985" to="15374898#0-AddedOffRampEdge"/>
	<trip id="146" depart="135" from="918280985" to="-597602756#0"/>
	<trip id="147" depart="136" from="422688973" to="-105681660#20"/>
	<trip id="148" depart="137" from="422685671#2" to="918280984"/>
	<trip id="149" depart="140" from="597602756#0" to="422688976#1"/>
	<trip id="150" depart="141" from="105681660#12" to="918280984"/>
	<trip id="151" depart="141" from="597602753#0" to="-318908683#1"/>
	<trip id="152" depart="143" from="318908683#0" to="-597602753#1"/>
	<trip id="153" depart="143" from="422685671#2" to="918280984"/>
	<trip id="154" depart="145" from="-260998164#3" to="-597602756#0"/>
	<trip id="155" depart="145" from="597602756#0" to="-105681660#20"/>
	<trip id="156" depart="146" from="105681660#12" to="-597602756#0"/>
	<trip id="157" depart="147" from="-260998164#3" to="-597602756#0"/>
	<trip id="158" depart="148" from="597602753#0" to="422688976#1"/>
	<trip id="159" depart="149" from="422685671#2" to="-105681660#20"/>
	<trip id="160" depart="151" from="422688973" to="15374898#0-AddedOffRampEdge"/>
	<trip id="161" depart="151" from="105681660#12" to="-597602753#1"/>
	<trip id="162" depart="152" from="597602753#0" to="918280984"/>
	<trip id="163" depart="152" from="597602756#0" to="-597602753#1"/>
	<trip id="164" depart="154" from="-260998164#3" to="15374898#0-AddedOffRampEdge"/>
	<trip id="165" depart="154" from="422688973" to="-597602753#1"/>
	<trip id="166" depart="155" from="318908683#0" to="918280984"/>
	<trip id="167" depart="155" from="318908683#0" to="-597602753#1"/>
	<trip id="168" depart="156" from="918280985" to="-597602756#0"/>
	<trip id="169" depart="157" from="-260998164#3" to="422688976#1"/>
	<trip id="170" depart="158" from="422688973" to="260998164#0"/>
	<trip id="171" depart="159" from="422688973" to="-597602756#0"/>
	<trip id="172" depart="161" from="918280985" to="-318908683#1"/>
	<trip id="173" depart="162" from="918280985" to="-105681660#20"/>
	<trip id="174" depart="163" from="-260998164#3" to="918280984"/>
	<trip id="175" depart="164" from="918280985" to="15374898#0-AddedOffRampEdge"/>
	<trip id="176" depart="164" from="918280985" to="-318908683#1"/>
	<trip id="177" depart="168" from="597602753#0" to="-318908683#1"/>
	<trip id="178" depart="168" from="318908683#0" to="-597602756#0"/>
	<trip id="179" depart="169" from="-260998164#3" to="15374898#0-AddedOffRampEdge"/>
	<trip id="180" depart="169" from="422685671#2" to="-597602753#1"/>
	<trip id="181" depart="171" from="318908683#0" to="260998164#0"/>
	<trip id="182" depart="171" from="105681660#12" to="918280984"/>
	<trip id="183" depart="171" from="422688973" to="15374898#0-AddedOffRampEdge"/>
	<trip id="184" depart="172" from="597602756#0" to="-318908683#1"/>
	<trip id="185" depart="172" from="422685671#2" to="260998164#0"/>
	<trip id="186" depart="173" from="422688973" to="-318908683#1"/>
	<trip id="187" depart="173" from="105681660#12" to="15374898#0-AddedOffRampEdge"/>
	<trip id="188" depart="174" from="422688973" to="-597602756#0"/>
	<trip id="189" depart="174" from="318908683#0" to="422688976#1"/>
	<trip id="190" depart="174" from="105681660#12" to="918280984"/>
	<trip id="191" depart="174" from="318908683#0" to="-105681660#20"/>
	<trip id="192" depart="174" from="318908683#0" to="-597602756#0"/>
	<trip id="193" depart="174" from="422688973" to="-597602756#0"/>
	<trip id="194" depart="175" from="422688973" to="-105681660#20"/>
	<trip id="195" depart="176" from="597602756#0" to="15374898#0-AddedOffRampEdge"/>
	<trip id="196" depart="177" from="318908683#0" to="918280984"/>
	<trip id="197" depart="178" from="422685671#2" to="-597602753#1"/>
	<trip id="198" depart="179" from="-260998164#3" to="-597602753#1"/>
	<trip id="199" depart="181" from="318908683#0" to="260998164#0"/>
	<trip id="200" depart="182" from="422685671#2" to="-105681660#20"/>
	<trip id="201" depart="182" from="422688973" to="-597602756#0"/>
	<trip id="202" depart="183" from="318908683#0" to="260998164#0"/>
	<trip id="203" depart="185" from="422688973" to="-105681660#20"/>
	<trip id="204" depart="186" from="-260998164#3" to="-597602753#1"/>
	<trip id="205" depart="186" from="318908683#0" to="-597602756#0"/>
	<trip id="206" depart="187" from="318908683#0" to="918280984"/>
	<trip id="207" depart="188" from="-260998164#3" to="-597602753#1"/>
	<trip id="208" depart="190" from="597602756#0" to="918280984"/>
	<trip id="209" depart="191" from="597602756#0" to="918280984"/>
	<trip id="210" depart="191" from="422685671#2" to="-597602753#1"/>
	<trip id="211" depart="192" from="597602756#0" to="-318908683#1"/>
	<trip id="212" depart="196" from="422685671#2" to="422688976#1"/>
	<trip id="213" depart="198" from="597602753#0" to="15374898#0-AddedOffRampEdge"/>
	<trip id="214" depart="198" from="918280985" to="15374898#0-AddedOffRampEdge"/>
	<trip id="215" depart="198" from="105681660#12" to="-597602753#1"/>
	<trip id="216" depart="198" from="597602756#0" to="-597602753#1"/>
	<trip id="217" depart="199" from="597602753#0" to="-318908683#1"/>
	<trip id="218" depart="199" from="422688973" to="260998164#0"/>
	<trip id="219" depart="200" from="-260998164#3" to="-597602753#1"/>
	<trip id="220" depart="201" from="105681660#12" to="918280984"/>
	<trip id="221" depart="203" from="318908683#0" to="918280984"/>
	<trip id="222" depart="204" from="-260998164#3" to="422688976#1"/>
	<trip id="223" depart="204" from="422688973" to="-105681660#20"/>
	<trip id="224" depart="205" from="597602753#0" to="260998164#0"/>
	<trip id="225" depart="205" from="597602756#0" to="-105681660#20"/>
	<trip id="226" depart="207" from="318908683#0" to="260998164#0"/>
	<trip id="227" depart="207" from="597602753#0" to="918280984"/>
	<trip id="228" depart="208" from="318908683#0" to="-597602756#0"/>
	<trip id="229" depart="211" from="597602756#0" to="15374898#0-AddedOffRampEdge"/>
	<trip id="230" depart="213" from="597602753#0" to="422688976#1"/>
	<trip id="231" depart="213" from="597602756#0" to="-105681660#20"/>
	<trip id="232" depart="213" from="918280985" to="-105681660#20"/>
	<trip id="233" depart="214" from="105681660#12" to="260998164#0"/>
	<trip id="234" depart="215" from="-260998164#3" to="918280984"/>
	<trip id="235" depart="217" from="318908683#0" to="422688976#1"/>
	<trip id="236" depart="217" from="422685671#2" to="-105681660#20"/>
	<trip id="237" depart="218" from="597602753#0" to="15374898#0-AddedOffRampEdge"/>
	<trip id="238" depart="218" from="318908683#0" to="260998164#0"/>
	<trip id="239" depart="219" from="597602756#0" to="-318908683#1"/>
	<trip id="240" depart="220" from="597602756#0" to="-318908683#1"/>
	<trip id="241" depart="221" from="422688973" to="-318908683#1"/>
	<trip id="242" depart="221" from="918280985" to="15374898#0-AddedOffRampEdge"/>
	<trip id="243" depart="222" from="597602756#0" to="422688976#1"/>
	<trip id="244" depart="223" from="422685671#2" to="918280984"/>
	<trip id="245" depart="223" from="105681660#12" to="15374898#0-AddedOffRampEdge"/>
	<trip id="246" depart="224" from="422685671#2" to="-597602756#0"/>
	<trip id="247" depart="225" from="422688973" to="15374898#0-AddedOffRampEdge"/>
	<trip id="248" depart="225" from="422688973" to="15374898#0-AddedOffRampEdge"/>
	<trip id="249" depart="225" from="105681660#12" to="-597602753#1"/>
	<trip id="250" depart="226" from="-260998164#3" to="-318908683#1"/>
	<trip id="251" depart="226" from="422688973" to="-597602756#0"/>
	<trip id="252" depart="229" from="422685671#2" to="918280984"/>
	<trip id="253" depart="231" from="597602753#0" to="-597602756#0"/>
	<trip id="254" depart="232" from="318908683#0" to="-597602753#1"/>
	<trip id="255" depart="233" from="918280985" to="260998164#0"/>
	<trip id="256" depart="234" from="918280985" to="-105681660#20"/>
	<trip id="257" depart="234" from="318908683#0" to="-597602753#1"/>
	<trip id="258" depart="236" from="918280985" to="-597602753#1"/>
	<trip id="259" depart="237" from="918280985" to="-597602756#0"/>
	<trip id="260" depart="241" from="597602756#0" to="15374898#0-AddedOffRampEdge"/>
	<trip id="261" depart="241" from="-260998164#3" to="-318908683#1"/>
	<trip id="262" depart="243" from="918280985" to="-105681660#20"/>
	<trip id="263" depart="244" from="918280985" to="15374898#0-AddedOffRampEdge"/>
	<trip id="264" depart="245" from="105681660#12" to="260998164#0"/>
	<trip id="265" depart="245" from="105681660#12" to="260998164#0"/>
	<trip id="266" depart="246" from="597602753#0" to="-597602756#0"/>
	<trip id="267" depart="249" from="-260998164#3" to="-597602756#0"/>
	<trip id="268" depart="250" from="422688973" to="260998164#0"/>
	<trip id="269" depart="251" from="318908683#0" to="422688976#1"/>
	<trip id="270" depart="251" from="422685671#2" to="422688976#1"/>
	<trip id="271" depart="251" from="918280985" to="-105681660#20"/>
	<trip id="272" depart="252" from="422685671#2" to="422688976#1"/>
	<trip id="273" depart="253" from="318908683#0" to="422688976#1"/>
	<trip id="274" depart="253" from="597602753#0" to="422688976#1"/>
	<trip id="275" depart="253" from="422688973" to="15374898#0-AddedOffRampEdge"/>
	<trip id="276" depart="255" from="318908683#0" to="918280984"/>
	<trip id="277" depart="255" from="105681660#12" to="918280984"/>
	<trip id="278" depart="256" from="918280985" to="-318908683#1"/>
	<trip id="279" depart="256" from="597602756#0" to="-105681660#20"/>
	<trip id="280" depart="256" from="422688973" to="15374898#0-AddedOffRampEdge"/>
	<trip id="281" depart="258" from="318908683#0" to="-597602756#0"/>
	<trip id="282" depart="258" from="318908683#0" to="-597602753#1"/>
	<trip id="283" depart="258" from="422688973" to="15374898#0-AddedOffRampEdge"/>
	<trip id="284" depart="259" from="422685671#2" to="-597602753#1"/>
	<trip id="285" depart="259" from="422685671#2" to="-105681660#20"/>
	<trip id="286" depart="259" from="422685671#2" to="422688976#1"/>
	<trip id="287" depart="260" from="-260998164#3" to="15374898#0-AddedOffRampEdge"/>
	<trip id="288" depart="262" from="422685671#2" to="918280984"/>
	<trip id="289" depart="263" from="422688973" to="-597602753#1"/>
	<trip id="290" depart="264" from="422688973" to="-105681660#20"/>
	<trip id="291" depart="265" from="597602756#0" to="422688976#1"/>
	<trip id="292" depart="265" from="918280985" to="-597602753#1"/>
	<trip id="293" depart="266" from="422688973" to="-318908683#1"/>
	<trip id="294" depart="266" from="422688973" to="15374898#0-AddedOffRampEdge"/>
	<trip id="295" depart="267" from="597602753#0" to="-318908683#1"/>
	<trip id="296" depart="267" from="318908683#0" to="422688976#1"/>
	<trip id="297" depart="269" from="-260998164#3" to="15374898#0-AddedOffRampEdge"/>
	<trip id="298" depart="271" from="105681660#12" to="918280984"/>
	<trip id="299" depart="273" from="422685671#2" to="-597602756#0"/>
	<trip id="300" depart="274" from="105681660#12" to="-597602756#0"/>
	<trip id="301" depart="274" from="318908683#0" to="-597602756#0"/>
	<trip id="302" depart="274" from="-260998164#3" to="15374898#0-AddedOffRampEdge"/>
	<trip id="303" depart="274" from="422685671#2" to="-597602753#1"/>
	<trip id="304" depart="276" from="597602753#0" to="-597602756#0"/>
	<trip id="305" depart="280" from="-260998164#3" to="918280984"/>
	<trip id="306" depart="281" from="318908683#0" to="-597602756#0"/>
	<trip id="307" depart="282" from="422685671#2" to="260998164#0"/>
	<trip id="308" depart="283" from="318908683#0" to="-597602753#1"/>
	<trip id="309" depart="283" from="105681660#12" to="260998164#0"/>
	<trip id="310" depart="284" from="-260998164#3" to="918280984"/>
	<trip id="311" depart="286" from="105681660#12" to="-318908683#1"/>
	<trip id="312" depart="288" from="422685671#2" to="918280984"/>
	<trip id="313" depart="289" from="422685671#2" to="-597602756#0"/>
	<trip id="314" depart="290" from="422688973" to="-597602756#0"/>
	<trip id="315" depart="291" from="597602753#0" to="918280984"/>
	<trip id="316" depart="291" from="105681660#12" to="-597602756#0"/>
	<trip id="317" depart="292" from="318908683#0" to="-597602756#0"/>
	<trip id="318" depart="294" from="422688973" to="15374898#0-AddedOffRampEdge"/>
	<trip id="319" depart="294" from="597602756#0" to="-597602753#1"/>
	<trip id="320" depart="294" from="422688973" to="-597602756#0"/>
	<trip id="321" depart="295" from="422688973" to="260998164#0"/>
	<trip id="322" depart="296" from="918280985" to="-105681660#20"/>
	<trip id="323" depart="297" from="-260998164#3" to="-597602756#0"/>
	<trip id="324" depart="298" from="422688973" to="-318908683#1"/>
	<trip id="325" depart="298" from="422685671#2" to="918280984"/>
	<trip id="326" depart="301" from="422688973" to="-105681660#20"/>
	<trip id="327" depart="301" from="597602756#0" to="422688976#1"/>
	<trip id="328" depart="303" from="918280985" to="-597602756#0"/>
	<trip id="329" depart="304" from="318908683#0" to="260998164#0"/>
	<trip id="330" depart="305" from="597602753#0" to="918280984"/>
	<trip id="331" depart="305" from="597602753#0" to="-105681660#20"/>
	<trip id="332" depart="305" from="597602753#0" to="-318908683#1"/>
	<trip id="333" depart="306" from="918280985" to="-105681660#20"/>
	<trip id="334" depart="306" from="597602756#0" to="918280984"/>
	<trip id="335" depart="306" from="918280985" to="260998164#0"/>
	<trip id="336" depart="306" from="422688973" to="260998164#0"/>
	<trip id="337" depart="306" from="422688973" to="260998164#0"/>
	<trip id="338" depart="307" from="-260998164#3" to="918280984"/>
	<trip id="339" depart="307" from="422688973" to="-105681660#20"/>
	<trip id="340" depart="308" from="597602753#0" to="-318908683#1"/>
	<trip id="341" depart="309" from="105681660#12" to="918280984"/>
	<trip id="342" depart="311" from="105681660#12" to="918280984"/>
	<trip id="343" depart="311" from="422685671#2" to="260998164#0"/>
	<trip id="344" depart="311" from="918280985" to="15374898#0-AddedOffRampEdge"/>
	<trip id="345" depart="314" from="422688973" to="-597602753#1"/>
	<trip id="346" depart="315" from="597602756#0" to="-105681660#20"/>
	<trip id="347" depart="315" from="-260998164#3" to="-597602753#1"/>
	<trip id="348" depart="316" from="-260998164#3" to="-318908683#1"/>
	<trip id="349" depart="317" from="105681660#12" to="-318908683#1"/>
	<trip id="350" depart="319" from="422688973" to="-318908683#1"/>
	<trip id="351" depart="320" from="-260998164#3" to="918280984"/>
	<trip id="352" depart="321" from="918280985" to="-597602753#1"/>
	<trip id="353" depart="322" from="422685671#2" to="422688976#1"/>
	<trip id="354" depart="323" from="597602756#0" to="260998164#0"/>
	<trip id="355" depart="326" from="422685671#2" to="-105681660#20"/>
	<trip id="356" depart="327" from="422685671#2" to="260998164#0"/>
	<trip id="357" depart="327" from="597602753#0" to="-105681660#20"/>
	<trip id="358" depart="327" from="318908683#0" to="-105681660#20"/>
	<trip id="359" depart="328" from="-260998164#3" to="15374898#0-AddedOffRampEdge"/>
	<trip id="360" depart="329" from="422688973" to="-597602753#1"/>
	<trip id="361" depart="330" from="105681660#12" to="260998164#0"/>
	<trip id="362" depart="331" from="105681660#12" to="260998164#0"/>
	<trip id="363" depart="334" from="597602756#0" to="-597602753#1"/>
	<trip id="364" depart="334" from="422685671#2" to="-105681660#20"/>
	<trip id="365" depart="336" from="422685671#2" to="-597602756#0"/>
	<trip id="366" depart="338" from="105681660#12" to="-597602756#0"/>
	<trip id="367" depart="340" from="422685671#2" to="-597602756#0"/>
	<trip id="368" depart="340" from="-260998164#3" to="918280984"/>
	<trip id="369" depart="341" from="318908683#0" to="-597602753#1"/>
	<trip id="370" depart="341" from="918280985" to="-318908683#1"/>
	<trip id="371" depart="342" from="422688973" to="-597602753#1"/>
	<trip id="372" depart="342" from="422685671#2" to="-597602756#0"/>
	<trip id="373" depart="342" from="597602753#0" to="260998164#0"/>
	<trip id="374" depart="344" from="597602753#0" to="-597602756#0"/>
	<trip id="375" depart="344" from="422685671#2" to="422688976#1"/>
	<trip id="376" depart="345" from="422688973" to="15374898#0-AddedOffRampEdge"/>
	<trip id="377" depart="345" from="597602753#0" to="-318908683#1"/>
	<trip id="378" depart="346" from="597602753#0" to="15374898#0-AddedOffRampEdge"/>
	<trip id="379" depart="347" from="597602756#0" to="-105681660#20"/>
	<trip id="380" depart="349" from="422685671#2" to="-597602753#1"/>
	<trip id="381" depart="349" from="597602756#0" to="-105681660#20"/>
	<trip id="382" depart="352" from="597602756#0" to="-318908683#1"/>
	<trip id="383" depart="353" from="105681660#12" to="422688976#1"/>
	<trip id="384" depart="353" from="-260998164#3" to="-597602753#1"/>
	<trip id="385" depart="353" from="-260998164#3" to="-318908683#1"/>
	<trip id="386" depart="353" from="597602756#0" to="-597602753#1"/>
	<trip id="387" depart="353" from="918280985" to="-597602753#1"/>
	<trip id="388" depart="353" from="422685671#2" to="-105681660#20"/>
	<trip id="389" depart="356" from="422688973" to="15374898#0-AddedOffRampEdge"/>
	<trip id="390" depart="356" from="597602756#0" to="918280984"/>
	<trip id="391" depart="357" from="597602756#0" to="15374898#0-AddedOffRampEdge"/>
	<trip id="392" depart="357" from="597602756#0" to="918280984"/>
	<trip id="393" depart="358" from="105681660#12" to="-597602753#1"/>
	<trip id="394" depart="359" from="597602756#0" to="-105681660#20"/>
	<trip id="395" depart="360" from="597602753#0" to="15374898#0-AddedOffRampEdge"/>
	<trip id="396" depart="360" from="422685671#2" to="422688976#1"/>
	<trip id="397" depart="360" from="318908683#0" to="-105681660#20"/>
	<trip id="398" depart="362" from="318908683#0" to="918280984"/>
	<trip id="399" depart="365" from="318908683#0" to="-597602756#0"/>
	<trip id="400" depart="367" from="422688973" to="-105681660#20"/>
	<trip id="401" depart="368" from="422688973" to="-318908683#1"/>
	<trip id="402" depart="369" from="422688973" to="-597602756#0"/>
	<trip id="403" depart="369" from="918280985" to="-318908683#1"/>
	<trip id="404" depart="370" from="422685671#2" to="422688976#1"/>
	<trip id="405" depart="371" from="422688973" to="-318908683#1"/>
	<trip id="406" depart="373" from="422688973" to="-105681660#20"/>
	<trip id="407" depart="374" from="422685671#2" to="918280984"/>
	<trip id="408" depart="376" from="422688973" to="260998164#0"/>
	<trip id="409" depart="376" from="597602756#0" to="260998164#0"/>
	<trip id="410" depart="377" from="-260998164#3" to="-318908683#1"/>
	<trip id="411" depart="377" from="-260998164#3" to="918280984"/>
	<trip id="412" depart="377" from="597602753#0" to="-318908683#1"/>
	<trip id="413" depart="381" from="597602756#0" to="-105681660#20"/>
	<trip id="414" depart="382" from="597602753#0" to="15374898#0-AddedOffRampEdge"/>
	<trip id="415" depart="383" from="105681660#12" to="15374898#0-AddedOffRampEdge"/>
	<trip id="416" depart="384" from="597602756#0" to="422688976#1"/>
	<trip id="417" depart="385" from="318908683#0" to="260998164#0"/>
	<trip id="418" depart="388" from="597602756#0" to="-105681660#20"/>
	<trip id="419" depart="390" from="597602753#0" to="-318908683#1"/>
	<trip id="420" depart="392" from="318908683#0" to="-597602753#1"/>
	<trip id="421" depart="393" from="318908683#0" to="260998164#0"/>
	<trip id="422" depart="394" from="597602756#0" to="422688976#1"/>
	<trip id="423" depart="396" from="918280985" to="260998164#0"/>
	<trip id="424" depart="398" from="422685671#2" to="-597602756#0"/>
	<trip id="425" depart="398" from="422685671#2" to="918280984"/>
	<trip id="426" depart="398" from="105681660#12" to="-597602756#0"/>
	<trip id="427" depart="398" from="422688973" to="-597602756#0"/>
	<trip id="428" depart="406" from="105681660#12" to="-318908683#1"/>
	<trip id="429" depart="407" from="105681660#12" to="15374898#0-AddedOffRampEdge"/>
	<trip id="430" depart="407" from="918280985" to="-318908683#1"/>
	<trip id="431" depart="410" from="422685671#2" to="918280984"/>
	<trip id="432" depart="411" from="-260998164#3" to="-597602753#1"/>
	<trip id="433" depart="413" from="422685671#2" to="-105681660#20"/>
	<trip id="434" depart="413" from="422688973" to="-105681660#20"/>
	<trip id="435" depart="414" from="597602756#0" to="-105681660#20"/>
	<trip id="436" depart="416" from="597602756#0" to="-597602753#1"/>