<?xml version="1.0" encoding="UTF-8"?>

<!-- generated on 2023-04-28 17:43:05 by Eclipse SUMO marouter Version 1.16.0
<configuration xmlns:xsi="http://www.w3.org/2001/XMLSchema-instance" xsi:noNamespaceSchemaLocation="http://sumo.dlr.de/xsd/marouterConfiguration.xsd">

    <input>
        <net-file value="./configurations/maps/Random_English.net.xml"/>
        <route-files value="./configurations/Rounds/Random_English.net.xml-test_R-3/Trips_File.rou.xml"/>
    </input>

    <output>
        <output-file value="./006/Trips_File_006.rou.xml"/>
    </output>

    <processing>
        <max-iterations value="7"/>
    </processing>

</configuration>
-->

<routes xmlns:xsi="http://www.w3.org/2001/XMLSchema-instance" xsi:noNamespaceSchemaLocation="http://sumo.dlr.de/xsd/routes_file.xsd">
    <vehicle id="4" depart="0.00" type="DEFAULT_VEHTYPE" fromTaz="-686" toTaz="-2300" departLane="free" departSpeed="max">
        <routeDistribution>
            <route cost="92.74" probability="1.00000000" edges="-686 -597 -505 523 1057 2300 -2300"/>
        </routeDistribution>
    </vehicle>
    <vehicle id="2" depart="0.00" type="DEFAULT_VEHTYPE" fromTaz="13" toTaz="-2876" departLane="free" departSpeed="max">
        <routeDistribution>
            <route cost="93.19" probability="1.00000000" edges="13 64 -121 125 344 365 569 2876 -2876"/>
        </routeDistribution>
    </vehicle>
    <vehicle id="3" depart="0.00" type="DEFAULT_VEHTYPE" fromTaz="2285" toTaz="2425" departLane="free" departSpeed="max">
        <routeDistribution>
            <route cost="174.88" probability="1.00000000" edges="2285 -2285 -837 -330 -119 -15 13 -17 25 128 383 579 618 867 2158 2425"/>
        </routeDistribution>
    </vehicle>
    <vehicle id="5" depart="3.00" type="DEFAULT_VEHTYPE" fromTaz="-1005" toTaz="2876" departLane="free" departSpeed="max">
        <routeDistribution>
            <route cost="95.24" probability="1.00000000" edges="-1005 -612 -577 -383 381 349 365 569 2876"/>
        </routeDistribution>
    </vehicle>
    <vehicle id="7" depart="4.00" type="DEFAULT_VEHTYPE" fromTaz="-3437" toTaz="-3122" departLane="free" departSpeed="max">
        <routeDistribution>
            <route cost="166.44" probability="1.00000000" edges="-3437 3435 3438 3497 4050 -589 -325 -117 119 330 -2200 -2186 2185 2486 -3122"/>
        </routeDistribution>
    </vehicle>
    <vehicle id="6" depart="4.00" type="DEFAULT_VEHTYPE" fromTaz="3744" toTaz="-730" departLane="free" departSpeed="max">
        <routeDistribution>
            <route cost="180.35" probability="1.00000000" edges="3744 4474 -2963 2969 3764 -2979 -2439 -618 -579 -383 -128 -25 17 38 319 639 -730"/>
        </routeDistribution>
    </vehicle>
    <vehicle id="8" depart="5.00" type="DEFAULT_VEHTYPE" fromTaz="-601" toTaz="1404" departLane="free" departSpeed="max">
        <routeDistribution>
            <route cost="107.12" probability="1.00000000" edges="-601 601 -613 614 -608 612 1011 1345 1404"/>
        </routeDistribution>
    </vehicle>
    <vehicle id="9" depart="6.00" type="DEFAULT_VEHTYPE" fromTaz="2961" toTaz="-348" departLane="free" departSpeed="max">
        <routeDistribution>
            <route cost="137.68" probability="1.00000000" edges="2961 -3740 3739 -3737 -1404 -1345 -1342 -1093 -1029 870 -679 356 -348"/>
        </routeDistribution>
    </vehicle>
    <vehicle id="10" depart="7.00" type="DEFAULT_VEHTYPE" fromTaz="1526" toTaz="3719" departLane="free" departSpeed="max">
        <routeDistribution>
            <route cost="162.22" probability="1.00000000" edges="1526 -1526 1524 1533 1535 -876 -639 -319 -38 -17 25 210 585 -601 3719"/>
        </routeDistribution>
    </vehicle>
    <vehicle id="11" depart="11.00" type="DEFAULT_VEHTYPE" fromTaz="-3847" toTaz="-870" departLane="free" departSpeed="max">
        <routeDistribution>
            <route cost="200.59" probability="1.00000000" edges="-3847 -3131 -2502 -2206 2202 -2168 -1930 1767 -880 -639 -319 -117 -15 -3 11 696 -870"/>
        </routeDistribution>
    </vehicle>
    <vehicle id="12" depart="12.00" type="DEFAULT_VEHTYPE" fromTaz="-3744" toTaz="3155" departLane="free" departSpeed="max">
        <routeDistribution>
            <route cost="218.87" probability="1.00000000" edges="-3744 -2895 -2423 -2158 -867 -618 -579 -383 -128 -25 17 -13 15 119 332 592 642 846 2714 3155"/>
        </routeDistribution>
    </vehicle>
    <vehicle id="13" depart="14.00" type="DEFAULT_VEHTYPE" fromTaz="840" toTaz="1941" departLane="free" departSpeed="max">
        <routeDistribution>
            <route cost="115.17" probability="1.00000000" edges="840 -840 -642 674 -837 -2200 -2186 -1941 1941"/>
        </routeDistribution>
    </vehicle>
    <vehicle id="14" depart="17.00" type="DEFAULT_VEHTYPE" fromTaz="1005" toTaz="2447" departLane="free" departSpeed="max">
        <routeDistribution>
            <route cost="134.44" probability="1.00000000" edges="1005 -1029 -728 -11 3 15 117 319 639 880 -1767 2447"/>
        </routeDistribution>
    </vehicle>
    <vehicle id="15" depart="18.00" type="DEFAULT_VEHTYPE" fromTaz="9" toTaz="19" departLane="free" departSpeed="max">
        <routeDistribution>
            <route cost="26.06" probability="1.00000000" edges="9 19"/>
        </routeDistribution>
    </vehicle>
    <vehicle id="17" depart="19.00" type="DEFAULT_VEHTYPE" fromTaz="-2494" toTaz="-2502" departLane="free" departSpeed="max">
        <routeDistribution>
            <route cost="40.94" probability="1.00000000" edges="-2494 2502 -2502"/>
        </routeDistribution>
    </vehicle>
    <vehicle id="18" depart="19.00" type="DEFAULT_VEHTYPE" fromTaz="-3437" toTaz="3787" departLane="free" departSpeed="max">
        <routeDistribution>
            <route cost="172.21" probability="1.00000000" edges="-3437 3435 3439 -1483 1493 2447 -2278 -1441 -1427 1429 1501 1775 1935 2171 3091 3787"/>
        </routeDistribution>
    </vehicle>
    <vehicle id="16" depart="19.00" type="DEFAULT_VEHTYPE" fromTaz="-379" toTaz="-1771" departLane="free" departSpeed="max">
        <routeDistribution>
            <route cost="160.86" probability="1.00000000" edges="-379 -344 -125 121 326 -313 -117 119 330 -2200 -1882 -1774 1775 -1771"/>
        </routeDistribution>
    </vehicle>
    <vehicle id="20" depart="23.00" type="DEFAULT_VEHTYPE" fromTaz="-3825" toTaz="-3885" departLane="free" departSpeed="max">
        <routeDistribution>
            <route cost="78.14" probability="1.00000000" edges="-3825 -2494 -2206 2201 3145 3885 -3885"/>
        </routeDistribution>
    </vehicle>
    <vehicle id="19" depart="23.00" type="DEFAULT_VEHTYPE" fromTaz="650" toTaz="-1891" departLane="free" departSpeed="max">
        <routeDistribution>
            <route cost="147.62" probability="1.00000000" edges="650 -650 674 -837 -2200 -1882 -1523 1517 1783 -1883 1891 -1891"/>
        </routeDistribution>
    </vehicle>
    <vehicle id="21" depart="24.00" type="DEFAULT_VEHTYPE" fromTaz="-1483" toTaz="3800" departLane="free" departSpeed="max">
        <routeDistribution>
            <route cost="131.40" probability="1.00000000" edges="-1483 1493 2447 -2278 -1441 -1427 1429 1501 1775 1935 2171 3800"/>
        </routeDistribution>
    </vehicle>
    <vehicle id="22" depart="28.00" type="DEFAULT_VEHTYPE" fromTaz="-138" toTaz="-2714" departLane="free" departSpeed="max">
        <routeDistribution>
            <route cost="136.19" probability="1.00000000" edges="-138 -25 17 -13 15 119 332 592 642 846 2714 -2714"/>
        </routeDistribution>
    </vehicle>
    <vehicle id="24" depart="30.00" type="DEFAULT_VEHTYPE" fromTaz="-2149" toTaz="-4501" departLane="free" departSpeed="max">
        <routeDistribution>
            <route cost="86.18" probability="1.00000000" edges="-2149 2149 -1919 2158 2423 2903 4501 -4501"/>
        </routeDistribution>
    </vehicle>
    <vehicle id="23" depart="30.00" type="DEFAULT_VEHTYPE" fromTaz="-3439" toTaz="64" departLane="free" departSpeed="max">
        <routeDistribution>
            <route cost="87.47" probability="1.00000000" edges="-3439 3438 3497 4050 -589 -325 -38 64"/>
        </routeDistribution>
    </vehicle>
    <vehicle id="25" depart="31.00" type="DEFAULT_VEHTYPE" fromTaz="3772" toTaz="1950" departLane="free" departSpeed="max">
        <routeDistribution>
            <route cost="138.29" probability="1.00000000" edges="3772 -3162 -848 -650 674 -837 -2200 -1882 -1523 1517 1797 1950"/>
        </routeDistribution>
    </vehicle>
    <vehicle id="26" depart="33.00" type="DEFAULT_VEHTYPE" fromTaz="1499" toTaz="3799" departLane="free" departSpeed="max">
        <routeDistribution>
            <route cost="76.56" probability="1.00000000" edges="1499 1771 1935 2171 3091 3799"/>
        </routeDistribution>
    </vehicle>
    <vehicle id="27" depart="35.00" type="DEFAULT_VEHTYPE" fromTaz="-2447" toTaz="2963" departLane="free" departSpeed="max">
        <routeDistribution>
            <route cost="185.28" probability="1.00000000" edges="-2447 1767 1357 1415 -523 -338 -123 125 344 365 535 2412 2873 2979 -3764 -2969 2963"/>
        </routeDistribution>
    </vehicle>
    <vehicle id="28" depart="36.00" type="DEFAULT_VEHTYPE" fromTaz="3131" toTaz="-612" departLane="free" departSpeed="max">
        <routeDistribution>
            <route cost="224.92" probability="1.00000000" edges="3131 -3131 -2502 -2206 2202 -2168 -1930 1767 -880 -639 -319 -117 -15 -3 11 728 1029 -1005 -612"/>
        </routeDistribution>
    </vehicle>
    <vehicle id="29" depart="37.00" type="DEFAULT_VEHTYPE" fromTaz="-3772" toTaz="15" departLane="free" departSpeed="max">
        <routeDistribution>
            <route cost="76.62" probability="1.00000000" edges="-3772 -1201 -1027 -698 -11 3 15"/>
        </routeDistribution>
    </vehicle>
    <vehicle id="30" depart="38.00" type="DEFAULT_VEHTYPE" fromTaz="-1783" toTaz="1199" departLane="free" departSpeed="max">
        <routeDistribution>
            <route cost="143.44" probability="1.00000000" edges="-1783 -1517 1523 1882 2200 837 -674 650 848 3252 -3773 -1201 1199"/>
        </routeDistribution>
    </vehicle>
    <vehicle id="31" depart="40.00" type="DEFAULT_VEHTYPE" fromTaz="2185" toTaz="2300" departLane="free" departSpeed="max">
        <routeDistribution>
            <route cost="144.83" probability="1.00000000" edges="2185 -2185 2186 2200 -330 -119 117 325 589 1057 2300"/>
        </routeDistribution>
    </vehicle>
    <vehicle id="33" depart="41.00" type="DEFAULT_VEHTYPE" fromTaz="-2166" toTaz="-3772" departLane="free" departSpeed="max">
        <routeDistribution>
            <route cost="146.42" probability="1.00000000" edges="-2166 -1483 -1425 1415 -589 -325 -117 119 332 592 650 848 3162 -3772"/>
        </routeDistribution>
    </vehicle>
    <vehicle id="32" depart="41.00" type="DEFAULT_VEHTYPE" fromTaz="3439" toTaz="-4258" departLane="free" departSpeed="max">
        <routeDistribution>
            <route cost="158.59" probability="1.00000000" edges="3439 -1483 -1425 1415 -523 -338 -123 125 344 365 533 1388 1464 3603 -4258"/>
        </routeDistribution>
    </vehicle>
    <vehicle id="34" depart="42.00" type="DEFAULT_VEHTYPE" fromTaz="1524" toTaz="1919" departLane="free" departSpeed="max">
        <routeDistribution>
            <route cost="164.06" probability="1.00000000" edges="1524 1533 1535 -876 -639 -319 -38 -17 25 128 383 579 618 867 1919"/>
        </routeDistribution>
    </vehicle>
    <vehicle id="35" depart="43.00" type="DEFAULT_VEHTYPE" fromTaz="-1388" toTaz="3920" departLane="free" departSpeed="max">
        <routeDistribution>
            <route cost="152.22" probability="1.00000000" edges="-1388 -533 -365 -344 -125 121 326 -313 -117 119 332 592 650 2724 3920"/>
        </routeDistribution>
    </vehicle>
    <vehicle id="36" depart="43.00" type="DEFAULT_VEHTYPE" fromTaz="64" toTaz="-4494" departLane="free" departSpeed="max">
        <routeDistribution>
            <route cost="159.56" probability="1.00000000" edges="64 -121 125 344 365 535 2412 2873 2979 -3764 -2969 2963 -4474 4494 -4494"/>
        </routeDistribution>
    </vehicle>
    <vehicle id="38" depart="46.00" type="DEFAULT_VEHTYPE" fromTaz="1882" toTaz="623" departLane="free" departSpeed="max">
        <routeDistribution>
            <route cost="59.53" probability="1.00000000" edges="1882 2200 -732 -625 623"/>
        </routeDistribution>
    </vehicle>
    <vehicle id="37" depart="46.00" type="DEFAULT_VEHTYPE" fromTaz="2766" toTaz="-7" departLane="free" departSpeed="max">
        <routeDistribution>
            <route cost="114.15" probability="1.00000000" edges="2766 3497 4050 -589 -325 -117 -15 -3 7 -7"/>
        </routeDistribution>
    </vehicle>
    <vehicle id="39" depart="48.00" type="DEFAULT_VEHTYPE" fromTaz="-1363" toTaz="-3835" departLane="free" departSpeed="max">
        <routeDistribution>
            <route cost="127.69" probability="1.00000000" edges="-1363 1373 1431 1526 1891 2110 2206 2494 3835 -3835"/>
        </routeDistribution>
    </vehicle>
    <vehicle id="41" depart="48.00" type="DEFAULT_VEHTYPE" fromTaz="-3739" toTaz="-1404" departLane="free" departSpeed="max">
        <routeDistribution>
            <route cost="45.71" probability="1.00000000" edges="-3739 3739 -3737 -1404"/>
        </routeDistribution>
    </vehicle>
    <vehicle id="40" depart="48.00" type="DEFAULT_VEHTYPE" fromTaz="-4473" toTaz="3734" departLane="free" departSpeed="max">
        <routeDistribution>
            <route cost="137.11" probability="1.00000000" edges="-4473 -3742 3744 4474 -2963 2969 3764 3769 -4257 -3611 -1464 -1391 2876 3734"/>
        </routeDistribution>
    </vehicle>
    <vehicle id="42" depart="49.00" type="DEFAULT_VEHTYPE" fromTaz="7" toTaz="-1057" departLane="free" departSpeed="max">
        <routeDistribution>
            <route cost="147.47" probability="1.00000000" edges="7 -7 3 15 117 325 589 1057 2300 -2300 -1057"/>
        </routeDistribution>
    </vehicle>
    <vehicle id="43" depart="50.00" type="DEFAULT_VEHTYPE" fromTaz="-1431" toTaz="-3883" departLane="free" departSpeed="max">
        <routeDistribution>
            <route cost="121.31" probability="1.00000000" edges="-1431 1431 1526 1891 2110 2206 2502 3137 3883 -3883"/>
        </routeDistribution>
    </vehicle>
    <vehicle id="45" depart="50.00" type="DEFAULT_VEHTYPE" fromTaz="-3779" toTaz="123" departLane="free" departSpeed="max">
        <routeDistribution>
            <route cost="157.59" probability="1.00000000" edges="-3779 3779 -2482 -2185 2186 2200 -330 -119 117 313 -326 -121 123"/>
        </routeDistribution>
    </vehicle>
    <vehicle id="44" depart="50.00" type="DEFAULT_VEHTYPE" fromTaz="613" toTaz="880" departLane="free" departSpeed="max">
        <routeDistribution>
            <route cost="112.87" probability="1.00000000" edges="613 -585 -210 -25 17 38 319 639 880"/>
        </routeDistribution>
    </vehicle>
    <vehicle id="46" depart="51.00" type="DEFAULT_VEHTYPE" fromTaz="-3907" toTaz="-2210" departLane="free" departSpeed="max">
        <routeDistribution>
            <route cost="143.37" probability="1.00000000" edges="-3907 -3166 -848 -650 674 -837 -2200 -1882 -1523 1517 1797 1944 -2210"/>
        </routeDistribution>
    </vehicle>
    <vehicle id="47" depart="52.00" type="DEFAULT_VEHTYPE" fromTaz="1447" toTaz="-1517" departLane="free" departSpeed="max">
        <routeDistribution>
            <route cost="68.06" probability="1.00000000" edges="1447 -1447 -1427 1429 1517 -1517"/>
        </routeDistribution>
    </vehicle>
    <vehicle id="49" depart="53.00" type="DEFAULT_VEHTYPE" fromTaz="-1391" toTaz="-13" departLane="free" departSpeed="max">
        <routeDistribution>
            <route cost="87.65" probability="1.00000000" edges="-1391 -569 -365 -344 -125 121 -64 -13"/>
        </routeDistribution>
    </vehicle>
    <vehicle id="48" depart="53.00" type="DEFAULT_VEHTYPE" fromTaz="-1526" toTaz="535" departLane="free" departSpeed="max">
        <routeDistribution>
            <route cost="145.03" probability="1.00000000" edges="-1526 1524 1533 -1494 1357 1415 -523 -338 -123 125 344 365 535"/>
        </routeDistribution>
    </vehicle>
    <vehicle id="50" depart="54.00" type="DEFAULT_VEHTYPE" fromTaz="-1483" toTaz="-1769" departLane="free" departSpeed="max">
        <routeDistribution>
            <route cost="87.87" probability="1.00000000" edges="-1483 1493 2447 -2278 -1524 1526 1883 -1783 -1769"/>
        </routeDistribution>
    </vehicle>
    <vehicle id="51" depart="54.00" type="DEFAULT_VEHTYPE" fromTaz="-2185" toTaz="-589" departLane="free" departSpeed="max">
        <routeDistribution>
            <route cost="113.17" probability="1.00000000" edges="-2185 2186 2200 -330 -119 117 325 589 -589"/>
        </routeDistribution>
    </vehicle>
    <vehicle id="52" depart="54.00" type="DEFAULT_VEHTYPE" fromTaz="3155" toTaz="1391" departLane="free" departSpeed="max">
        <routeDistribution>
            <route cost="186.57" probability="1.00000000" edges="3155 -3155 -2714 -846 -642 -592 -332 -119 117 313 -326 -121 125 344 365 569 1391"/>
        </routeDistribution>
    </vehicle>
    <vehicle id="54" depart="55.00" type="DEFAULT_VEHTYPE" fromTaz="-2453" toTaz="-3437" departLane="free" departSpeed="max">
        <routeDistribution>
            <route cost="144.62" probability="1.00000000" edges="-2453 2449 -2194 -1950 -1942 -1883 1891 2128 -2168 -2166 -3439 -3435 3437 -3437"/>
        </routeDistribution>
    </vehicle>
    <vehicle id="53" depart="55.00" type="DEFAULT_VEHTYPE" fromTaz="1464" toTaz="116" departLane="free" departSpeed="max">
        <routeDistribution>
            <route cost="96.91" probability="1.00000000" edges="1464 -1464 -1388 -533 -365 -344 -125 121 -64 116"/>
        </routeDistribution>
    </vehicle>
    <vehicle id="55" depart="57.00" type="DEFAULT_VEHTYPE" fromTaz="-523" toTaz="332" departLane="free" departSpeed="max">
        <routeDistribution>
            <route cost="64.83" probability="1.00000000" edges="-523 517 -588 -325 -117 119 332"/>
        </routeDistribution>
    </vehicle>
    <vehicle id="56" depart="59.00" type="DEFAULT_VEHTYPE" fromTaz="-1093" toTaz="-1011" departLane="free" departSpeed="max">
        <routeDistribution>
            <route cost="46.07" probability="1.00000000" edges="-1093 1093 1342 -1011"/>
        </routeDistribution>
    </vehicle>
    <vehicle id="57" depart="61.00" type="DEFAULT_VEHTYPE" fromTaz="-2171" toTaz="2168" departLane="free" departSpeed="max">
        <routeDistribution>
            <route cost="123.64" probability="1.00000000" edges="-2171 -1935 -1775 -1501 -1429 1427 1441 2278 -2447 1930 2168"/>
        </routeDistribution>
    </vehicle>
    <vehicle id="58" depart="63.00" type="DEFAULT_VEHTYPE" fromTaz="-123" toTaz="332" departLane="free" departSpeed="max">
        <routeDistribution>
            <route cost="62.58" probability="1.00000000" edges="-123 121 326 -313 -117 119 332"/>
        </routeDistribution>
    </vehicle>
    <vehicle id="59" depart="65.00" type="DEFAULT_VEHTYPE" fromTaz="-2120" toTaz="2876" departLane="free" departSpeed="max">
        <routeDistribution>
            <route cost="167.66" probability="1.00000000" edges="-2120 2128 -2168 -1930 1767 1357 1415 -523 -338 -123 125 344 365 569 2876"/>
        </routeDistribution>
    </vehicle>
    <vehicle id="61" depart="66.00" type="DEFAULT_VEHTYPE" fromTaz="-2149" toTaz="1425" departLane="free" departSpeed="max">
        <routeDistribution>
            <route cost="129.15" probability="0.28571429" edges="-2149 -614 -579 -383 -128 126 -125 123 338 523 -1415 1425"/>
            <route cost="129.00" probability="0.71428571" edges="-2149 -614 613 -585 349 -344 -125 123 338 523 -1415 1425"/>
        </routeDistribution>
    </vehicle>
    <vehicle id="62" depart="66.00" type="DEFAULT_VEHTYPE" fromTaz="2872" toTaz="2425" departLane="free" departSpeed="max">
        <routeDistribution>
            <route cost="76.83" probability="1.00000000" edges="2872 2873 -2439 867 2158 2425"/>
        </routeDistribution>
    </vehicle>
    <vehicle id="60" depart="66.00" type="DEFAULT_VEHTYPE" fromTaz="614" toTaz="-876" departLane="free" departSpeed="max">
        <routeDistribution>
            <route cost="124.40" probability="1.00000000" edges="614 -614 -579 -383 -128 -25 17 38 319 639 876 -876"/>
        </routeDistribution>
    </vehicle>
    <vehicle id="64" depart="68.00" type="DEFAULT_VEHTYPE" fromTaz="-1033" toTaz="-1431" departLane="free" departSpeed="max">
        <routeDistribution>
            <route cost="84.55" probability="1.00000000" edges="-1033 -734 -625 639 876 -1535 -1533 -1524 -1431"/>
        </routeDistribution>
    </vehicle>
    <vehicle id="63" depart="68.00" type="DEFAULT_VEHTYPE" fromTaz="-123" toTaz="126" departLane="free" departSpeed="max">
        <routeDistribution>
            <route cost="50.19" probability="0.42857143" edges="-123 -19 25 126"/>
            <route cost="50.20" probability="0.57142857" edges="-123 125 -126 126"/>
        </routeDistribution>
    </vehicle>
    <vehicle id="66" depart="73.00" type="DEFAULT_VEHTYPE" fromTaz="-3799" toTaz="-1950" departLane="free" departSpeed="max">
        <routeDistribution>
            <route cost="72.83" probability="1.00000000" edges="-3799 -3091 -2171 2173 2449 -2194 -1950"/>
        </routeDistribution>
    </vehicle>
    <vehicle id="65" depart="73.00" type="DEFAULT_VEHTYPE" fromTaz="-4257" toTaz="-1941" departLane="free" departSpeed="max">
        <routeDistribution>
            <route cost="172.23" probability="1.00000000" edges="-4257 -3611 -1464 -1388 -533 -365 -344 -125 121 326 -313 -117 119 330 -2200 -2186 -1941"/>
        </routeDistribution>
    </vehicle>
    <vehicle id="68" depart="75.00" type="DEFAULT_VEHTYPE" fromTaz="-3439" toTaz="1532" departLane="free" departSpeed="max">
        <routeDistribution>
            <route cost="89.60" probability="1.00000000" edges="-3439 3439 -1483 1493 2447 -2278 -1524 1532"/>
        </routeDistribution>
    </vehicle>
    <vehicle id="67" depart="75.00" type="DEFAULT_VEHTYPE" fromTaz="2183" toTaz="-612" departLane="free" departSpeed="max">
        <routeDistribution>
            <route cost="168.17" probability="1.00000000" edges="2183 3121 -2482 -2185 2186 2200 -330 -119 -15 -3 11 728 1029 -1005 -612"/>
        </routeDistribution>
    </vehicle>
    <vehicle id="69" depart="76.00" type="DEFAULT_VEHTYPE" fromTaz="577" toTaz="-4474" departLane="free" departSpeed="max">
        <routeDistribution>
            <route cost="90.97" probability="1.00000000" edges="577 608 2149 -1919 2158 2425 2963 -4474"/>
        </routeDistribution>
    </vehicle>
    <vehicle id="70" depart="77.00" type="DEFAULT_VEHTYPE" fromTaz="-2194" toTaz="11" departLane="free" departSpeed="max">
        <routeDistribution>
            <route cost="144.88" probability="1.00000000" edges="-2194 -1950 -1797 -1517 1523 1882 2200 -330 -119 -15 -3 11"/>
        </routeDistribution>
    </vehicle>
    <vehicle id="72" depart="79.00" type="DEFAULT_VEHTYPE" fromTaz="1483" toTaz="-1057" departLane="free" departSpeed="max">
        <routeDistribution>
            <route cost="107.45" probability="1.00000000" edges="1483 -1483 -1425 1415 1057 2300 -2300 -1057"/>
        </routeDistribution>
    </vehicle>
    <vehicle id="71" depart="79.00" type="DEFAULT_VEHTYPE" fromTaz="1526" toTaz="-2453" departLane="free" departSpeed="max">
        <routeDistribution>
            <route cost="72.13" probability="1.00000000" edges="1526 1883 1942 1950 2194 -2449 2453 -2453"/>
        </routeDistribution>
    </vehicle>
    <vehicle id="73" depart="79.00" type="DEFAULT_VEHTYPE" fromTaz="2168" toTaz="-2120" departLane="free" departSpeed="max">
        <routeDistribution>
            <route cost="45.80" probability="1.00000000" edges="2168 -2128 2120 -2120"/>
        </routeDistribution>
    </vehicle>
    <vehicle id="74" depart="80.00" type="DEFAULT_VEHTYPE" fromTaz="-1359" toTaz="535" departLane="free" departSpeed="max">
        <routeDistribution>
            <route cost="141.17" probability="1.00000000" edges="-1359 1359 -876 -639 -319 313 -326 -121 125 344 365 535"/>
        </routeDistribution>
    </vehicle>
    <vehicle id="75" depart="80.00" type="DEFAULT_VEHTYPE" fromTaz="-1391" toTaz="-728" departLane="free" departSpeed="max">
        <routeDistribution>
            <route cost="99.93" probability="1.00000000" edges="-1391 -569 -365 -349 -210 138 -333 679 -870 -728"/>
        </routeDistribution>
    </vehicle>
    <vehicle id="76" depart="80.00" type="DEFAULT_VEHTYPE" fromTaz="585" toTaz="-4494" departLane="free" departSpeed="max">
        <routeDistribution>
            <route cost="111.49" probability="1.00000000" edges="585 -601 2412 2873 2979 -3764 -2969 2963 -4474 4494 -4494"/>
        </routeDistribution>
    </vehicle>
    <vehicle id="77" depart="82.00" type="DEFAULT_VEHTYPE" fromTaz="1033" toTaz="2732" departLane="free" departSpeed="max">
        <routeDistribution>
            <route cost="96.87" probability="1.00000000" edges="1033 -882 880 1357 1415 -4050 -3497 -2766 2732"/>
        </routeDistribution>
    </vehicle>
    <vehicle id="78" depart="82.00" type="DEFAULT_VEHTYPE" fromTaz="64" toTaz="1033" departLane="free" departSpeed="max">
        <routeDistribution>
            <route cost="70.72" probability="1.00000000" edges="64 326 -313 319 625 734 1033"/>
        </routeDistribution>
    </vehicle>
    <vehicle id="79" depart="83.00" type="DEFAULT_VEHTYPE" fromTaz="383" toTaz="-3166" departLane="free" departSpeed="max">
        <routeDistribution>
            <route cost="121.92" probability="1.00000000" edges="383 577 612 1005 1093 1343 -1199 1201 3773 -3252 3328 -3907 -3166"/>
        </routeDistribution>
    </vehicle>
    <vehicle id="80" depart="84.00" type="DEFAULT_VEHTYPE" fromTaz="3799" toTaz="-4257" departLane="free" departSpeed="max">
        <routeDistribution>
            <route cost="245.58" probability="1.00000000" edges="3799 -3801 3091 3779 -2482 -2185 2186 2200 -330 -119 117 313 -326 -121 125 344 365 533 1388 1464 3611 4257 -4257"/>
        </routeDistribution>
    </vehicle>
    <vehicle id="81" depart="85.00" type="DEFAULT_VEHTYPE" fromTaz="-4505" toTaz="-3435" departLane="free" departSpeed="max">
        <routeDistribution>
            <route cost="204.03" probability="0.28571429" edges="-4505 -4495 -2903 -2423 -2158 -867 -618 -579 -383 -128 126 -125 123 338 523 -4050 -3497 -3438 -3435"/>
            <route cost="203.88" probability="0.71428571" edges="-4505 -4495 -2903 -2423 -2158 -867 -618 613 -585 349 -344 -125 123 338 523 -4050 -3497 -3438 -3435"/>
        </routeDistribution>
    </vehicle>
    <vehicle id="83" depart="86.00" type="DEFAULT_VEHTYPE" fromTaz="1523" toTaz="623" departLane="free" departSpeed="max">
        <routeDistribution>
            <route cost="70.12" probability="1.00000000" edges="1523 1882 2200 -732 -625 623"/>
        </routeDistribution>
    </vehicle>
    <vehicle id="82" depart="86.00" type="DEFAULT_VEHTYPE" fromTaz="3744" toTaz="-4527" departLane="free" departSpeed="max">
        <routeDistribution>
            <route cost="65.89" probability="1.00000000" edges="3744 -3744 -2895 2961 4527 -4527"/>
        </routeDistribution>
    </vehicle>
    <vehicle id="85" depart="87.00" type="DEFAULT_VEHTYPE" fromTaz="2881" toTaz="-1029" departLane="free" departSpeed="max">
        <routeDistribution>
            <route cost="92.11" probability="1.00000000" edges="2881 3739 -3737 -1404 -1345 -1342 -1093 -1029"/>
        </routeDistribution>
    </vehicle>
    <vehicle id="84" depart="87.00" type="DEFAULT_VEHTYPE" fromTaz="837" toTaz="642" departLane="free" departSpeed="max">
        <routeDistribution>
            <route cost="35.09" probability="1.00000000" edges="837 -674 642"/>
        </routeDistribution>
    </vehicle>
    <vehicle id="86" depart="91.00" type="DEFAULT_VEHTYPE" fromTaz="-2209" toTaz="-25" departLane="free" departSpeed="max">
        <routeDistribution>
            <route cost="158.12" probability="1.00000000" edges="-2209 -2120 -1891 -1526 1524 1533 1535 -876 -639 -319 -38 -17 25 -25"/>
        </routeDistribution>
    </vehicle>
    <vehicle id="87" depart="91.00" type="DEFAULT_VEHTYPE" fromTaz="3611" toTaz="3603" departLane="free" departSpeed="max">
        <routeDistribution>
            <route cost="28.83" probability="1.00000000" edges="3611 -3611 3603"/>
        </routeDistribution>
    </vehicle>
    <vehicle id="88" depart="93.00" type="DEFAULT_VEHTYPE" fromTaz="-3121" toTaz="3885" departLane="free" departSpeed="max">
        <routeDistribution>
            <route cost="118.62" probability="1.00000000" edges="-3121 -2183 2173 2449 -2194 -1950 -1942 -1883 1891 2112 3145 3885"/>
        </routeDistribution>
    </vehicle>
    <vehicle id="89" depart="95.00" type="DEFAULT_VEHTYPE" fromTaz="-1942" toTaz="882" departLane="free" departSpeed="max">
        <routeDistribution>
            <route cost="74.93" probability="1.00000000" edges="-1942 -1883 -1526 1524 1533 1535 -876 882"/>
        </routeDistribution>
    </vehicle>
    <vehicle id="92" depart="96.00" type="DEFAULT_VEHTYPE" fromTaz="-15" toTaz="-3137" departLane="free" departSpeed="max">
        <routeDistribution>
            <route cost="171.01" probability="1.00000000" edges="-15 15 117 319 639 880 -1767 1930 2168 -2202 2206 2502 3137 -3137"/>
        </routeDistribution>
    </vehicle>
    <vehicle id="91" depart="96.00" type="DEFAULT_VEHTYPE" fromTaz="-3166" toTaz="-3740" departLane="free" departSpeed="max">
        <routeDistribution>
            <route cost="138.79" probability="1.00000000" edges="-3166 3252 -3773 -1201 1199 -1343 1342 1345 1404 3737 -3739 3740 -3740"/>
        </routeDistribution>
    </vehicle>
    <vehicle id="90" depart="96.00" type="DEFAULT_VEHTYPE" fromTaz="1483" toTaz="2732" departLane="free" departSpeed="max">
        <routeDistribution>
            <route cost="41.77" probability="1.00000000" edges="1483 -3439 -2756 2732"/>
        </routeDistribution>