<?xml version="1.0" encoding="UTF-8"?>

<!-- generated on 2023-04-28 16:07:04 by Eclipse SUMO marouter Version 1.16.0
<configuration xmlns:xsi="http://www.w3.org/2001/XMLSchema-instance" xsi:noNamespaceSchemaLocation="http://sumo.dlr.de/xsd/marouterConfiguration.xsd">

    <input>
        <net-file value="./configurations/maps/Random_English.net.xml"/>
        <route-files value="./configurations/Rounds/Random_English.net.xml-test_R-1/Trips_File.rou.xml"/>
    </input>

    <output>
        <output-file value="./018/Trips_File_018.rou.xml"/>
    </output>

    <processing>
        <max-iterations value="19"/>
    </processing>

</configuration>
-->

<routes xmlns:xsi="http://www.w3.org/2001/XMLSchema-instance" xsi:noNamespaceSchemaLocation="http://sumo.dlr.de/xsd/routes_file.xsd">
    <vehicle id="2" depart="0.00" type="DEFAULT_VEHTYPE" fromTaz="2423" toTaz="848" departLane="free" departSpeed="max">
        <routeDistribution>
            <route cost="149.06" probability="1.00000000" edges="2423 -2423 -2158 1919 -2149 -608 612 1005 1093 1343 -1199 1201 3773 -3252 -848 848"/>
        </routeDistribution>
    </vehicle>
    <vehicle id="3" depart="2.00" type="DEFAULT_VEHTYPE" fromTaz="-2453" toTaz="-1199" departLane="free" departSpeed="max">
        <routeDistribution>
            <route cost="194.04" probability="1.00000000" edges="-2453 -2173 -1935 -1775 1774 1882 2200 -330 -119 -15 -3 11 728 1029 1093 1343 -1199"/>
        </routeDistribution>
    </vehicle>
    <vehicle id="4" depart="4.00" type="DEFAULT_VEHTYPE" fromTaz="-332" toTaz="-2482" departLane="free" departSpeed="max">
        <routeDistribution>
            <route cost="96.54" probability="1.00000000" edges="-332 330 -2200 -2186 2185 2482 -2482"/>
        </routeDistribution>
    </vehicle>
    <vehicle id="6" depart="5.00" type="DEFAULT_VEHTYPE" fromTaz="-1388" toTaz="-1441" departLane="free" departSpeed="max">
        <routeDistribution>
            <route cost="144.46" probability="1.00000000" edges="-1388 -533 -365 -344 -125 123 338 523 -1415 -1357 1494 -1533 -1441"/>
        </routeDistribution>
    </vehicle>
    <vehicle id="5" depart="5.00" type="DEFAULT_VEHTYPE" fromTaz="356" toTaz="1930" departLane="free" departSpeed="max">
        <routeDistribution>
            <route cost="137.63" probability="0.31578947" edges="356 -348 -138 126 -125 123 338 523 -1415 -1357 -1767 1930"/>
            <route cost="137.63" probability="0.68421053" edges="356 -348 -138 -25 19 123 338 523 -1415 -1357 -1767 1930"/>
        </routeDistribution>
    </vehicle>
    <vehicle id="7" depart="6.00" type="DEFAULT_VEHTYPE" fromTaz="-876" toTaz="-3773" departLane="free" departSpeed="max">
        <routeDistribution>
            <route cost="97.77" probability="1.00000000" edges="-876 -639 625 732 837 -674 650 848 3252 -3773"/>
        </routeDistribution>
    </vehicle>
    <vehicle id="8" depart="7.00" type="DEFAULT_VEHTYPE" fromTaz="-4495" toTaz="1404" departLane="free" departSpeed="max">
        <routeDistribution>
            <route cost="87.40" probability="1.00000000" edges="-4495 -2903 2961 -3740 3739 -3737 -1404 1404"/>
        </routeDistribution>
    </vehicle>
    <vehicle id="10" depart="9.00" type="DEFAULT_VEHTYPE" fromTaz="-732" toTaz="3159" departLane="free" departSpeed="max">
        <routeDistribution>
            <route cost="85.67" probability="1.00000000" edges="-732 732 837 -674 642 846 2714 3159"/>
        </routeDistribution>
    </vehicle>
    <vehicle id="9" depart="9.00" type="DEFAULT_VEHTYPE" fromTaz="3737" toTaz="-612" departLane="free" departSpeed="max">
        <routeDistribution>
            <route cost="68.77" probability="1.00000000" edges="3737 -3737 -1404 -1345 -1011 -612"/>
        </routeDistribution>
    </vehicle>
    <vehicle id="11" depart="10.00" type="DEFAULT_VEHTYPE" fromTaz="-533" toTaz="618" departLane="free" departSpeed="max">
        <routeDistribution>
            <route cost="56.21" probability="1.00000000" edges="-533 535 601 -613 618"/>
        </routeDistribution>
    </vehicle>
    <vehicle id="12" depart="11.00" type="DEFAULT_VEHTYPE" fromTaz="-1357" toTaz="2194" departLane="free" departSpeed="max">
        <routeDistribution>
            <route cost="91.80" probability="1.00000000" edges="-1357 1494 -1533 -1524 1526 1883 1942 1950 2194"/>
        </routeDistribution>
    </vehicle>
    <vehicle id="13" depart="12.00" type="DEFAULT_VEHTYPE" fromTaz="-3145" toTaz="569" departLane="free" departSpeed="max">
        <routeDistribution>
            <route cost="167.80" probability="1.00000000" edges="-3145 -2201 2202 -2168 -1930 1767 1357 1415 -523 -338 -123 125 344 365 569"/>
        </routeDistribution>
    </vehicle>
    <vehicle id="14" depart="14.00" type="DEFAULT_VEHTYPE" fromTaz="-577" toTaz="686" departLane="free" departSpeed="max">
        <routeDistribution>
            <route cost="103.83" probability="0.31578947" edges="-577 -383 -128 126 -125 123 338 505 597 686"/>
            <route cost="103.83" probability="0.68421053" edges="-577 -383 -128 -25 19 123 338 505 597 686"/>
        </routeDistribution>
    </vehicle>
    <vehicle id="15" depart="14.00" type="DEFAULT_VEHTYPE" fromTaz="2291" toTaz="-1950" departLane="free" departSpeed="max">
        <routeDistribution>
            <route cost="147.82" probability="1.00000000" edges="2291 -2291 2289 2756 3439 2166 2168 -2128 -1891 1883 1942 1950 -1950"/>
        </routeDistribution>
    </vehicle>
    <vehicle id="16" depart="17.00" type="DEFAULT_VEHTYPE" fromTaz="1950" toTaz="3252" departLane="free" departSpeed="max">
        <routeDistribution>
            <route cost="136.33" probability="1.00000000" edges="1950 -1950 -1797 -1517 1523 1882 2200 837 -674 650 848 3252"/>
        </routeDistribution>
    </vehicle>
    <vehicle id="17" depart="18.00" type="DEFAULT_VEHTYPE" fromTaz="-1950" toTaz="4027" departLane="free" departSpeed="max">
        <routeDistribution>
            <route cost="126.42" probability="1.00000000" edges="-1950 -1942 -1883 1891 2128 -2168 -2166 -3439 -3435 3437 4027"/>
        </routeDistribution>
    </vehicle>
    <vehicle id="18" depart="19.00" type="DEFAULT_VEHTYPE" fromTaz="-3145" toTaz="-1199" departLane="free" departSpeed="max">
        <routeDistribution>
            <route cost="190.83" probability="1.00000000" edges="-3145 -2112 -1891 -1526 1524 1533 1535 -876 -639 -319 -117 -15 -3 11 728 1029 1093 1343 -1199"/>
        </routeDistribution>
    </vehicle>
    <vehicle id="19" depart="20.00" type="DEFAULT_VEHTYPE" fromTaz="3607" toTaz="-698" departLane="free" departSpeed="max">
        <routeDistribution>
            <route cost="135.70" probability="1.00000000" edges="3607 -3607 -1464 -1388 -533 -365 -349 -210 -25 -9 11 698 -698"/>
        </routeDistribution>
    </vehicle>
    <vehicle id="21" depart="21.00" type="DEFAULT_VEHTYPE" fromTaz="1415" toTaz="3742" departLane="free" departSpeed="max">
        <routeDistribution>
            <route cost="171.94" probability="0.26315789" edges="1415 -523 -338 -123 125 -126 128 383 579 618 867 2158 2423 2895 3742"/>
            <route cost="171.95" probability="0.05263158" edges="1415 -523 -338 -123 -19 25 128 383 579 618 867 2158 2423 2895 3742"/>
            <route cost="171.90" probability="0.68421053" edges="1415 -523 -338 -123 125 344 -349 585 -613 618 867 2158 2423 2895 3742"/>
        </routeDistribution>
    </vehicle>
    <vehicle id="20" depart="21.00" type="DEFAULT_VEHTYPE" fromTaz="2421" toTaz="-504" departLane="free" departSpeed="max">
        <routeDistribution>
            <route cost="147.21" probability="0.15789474" edges="2421 -2421 -2149 -614 -579 -383 -128 126 -125 123 338 505 -504"/>
            <route cost="147.21" probability="0.05263158" edges="2421 -2421 -2149 -614 -579 -383 -128 -25 19 123 338 505 -504"/>
            <route cost="147.18" probability="0.78947368" edges="2421 -2421 -2149 -614 613 -585 349 -344 -125 123 338 505 -504"/>
        </routeDistribution>
    </vehicle>
    <vehicle id="22" depart="22.00" type="DEFAULT_VEHTYPE" fromTaz="-597" toTaz="-1011" departLane="free" departSpeed="max">
        <routeDistribution>
            <route cost="126.04" probability="1.00000000" edges="-597 -505 -338 -123 -19 -9 11 728 1029 1093 1342 -1011"/>
        </routeDistribution>
    </vehicle>
    <vehicle id="23" depart="22.00" type="DEFAULT_VEHTYPE" fromTaz="3131" toTaz="-2412" departLane="free" departSpeed="max">
        <routeDistribution>
            <route cost="216.06" probability="1.00000000" edges="3131 -3131 -2502 -2206 2202 -2168 -1930 1767 1357 1415 -523 -338 -123 125 344 365 535 2412 -2412"/>
        </routeDistribution>
    </vehicle>
    <vehicle id="24" depart="23.00" type="DEFAULT_VEHTYPE" fromTaz="2291" toTaz="125" departLane="free" departSpeed="max">
        <routeDistribution>
            <route cost="73.42" probability="1.00000000" edges="2291 -2291 -684 -597 -505 -338 -123 125"/>
        </routeDistribution>
    </vehicle>
    <vehicle id="25" depart="24.00" type="DEFAULT_VEHTYPE" fromTaz="1523" toTaz="-3603" departLane="free" departSpeed="max">
        <routeDistribution>
            <route cost="180.72" probability="1.00000000" edges="1523 1882 2200 -330 -119 117 313 -326 -121 125 344 365 533 1388 1464 3603 -3603"/>
        </routeDistribution>
    </vehicle>
    <vehicle id="26" depart="26.00" type="DEFAULT_VEHTYPE" fromTaz="-1774" toTaz="880" departLane="free" departSpeed="max">
        <routeDistribution>
            <route cost="74.05" probability="1.00000000" edges="-1774 -1501 -1429 -1363 1359 -876 880"/>
        </routeDistribution>
    </vehicle>
    <vehicle id="28" depart="27.00" type="DEFAULT_VEHTYPE" fromTaz="-348" toTaz="-1499" departLane="free" departSpeed="max">
        <routeDistribution>
            <route cost="149.67" probability="1.00000000" edges="-348 -333 -7 3 15 119 330 -2200 -1882 -1523 1499 -1499"/>
        </routeDistribution>
    </vehicle>
    <vehicle id="27" depart="27.00" type="DEFAULT_VEHTYPE" fromTaz="2200" toTaz="-336" departLane="free" departSpeed="max">
        <routeDistribution>
            <route cost="91.27" probability="1.00000000" edges="2200 -330 -119 117 325 588 -517 -338 336 -336"/>
        </routeDistribution>
    </vehicle>
    <vehicle id="29" depart="27.00" type="DEFAULT_VEHTYPE" fromTaz="3439" toTaz="-1093" departLane="free" departSpeed="max">
        <routeDistribution>
            <route cost="153.75" probability="1.00000000" edges="3439 -1483 -1425 1415 -589 -325 -117 -15 -3 11 728 1029 1093 -1093"/>
        </routeDistribution>
    </vehicle>
    <vehicle id="31" depart="28.00" type="DEFAULT_VEHTYPE" fromTaz="-4539" toTaz="-2186" departLane="free" departSpeed="max">
        <routeDistribution>
            <route cost="172.84" probability="1.00000000" edges="-4539 -4257 -3611 -1464 -1388 -533 -365 -344 -125 121 326 -313 -117 119 330 -2200 -2186"/>
        </routeDistribution>
    </vehicle>
    <vehicle id="30" depart="28.00" type="DEFAULT_VEHTYPE" fromTaz="1431" toTaz="121" departLane="free" departSpeed="max">
        <routeDistribution>
            <route cost="109.06" probability="1.00000000" edges="1431 1524 1533 -1494 1357 1415 -523 -338 -123 121"/>
        </routeDistribution>
    </vehicle>
    <vehicle id="32" depart="29.00" type="DEFAULT_VEHTYPE" fromTaz="-3438" toTaz="-588" departLane="free" departSpeed="max">
        <routeDistribution>
            <route cost="69.82" probability="1.00000000" edges="-3438 3438 3497 4050 -523 517 -588"/>
        </routeDistribution>
    </vehicle>
    <vehicle id="34" depart="29.00" type="DEFAULT_VEHTYPE" fromTaz="2291" toTaz="-4031" departLane="free" departSpeed="max">
        <routeDistribution>
            <route cost="65.46" probability="1.00000000" edges="2291 -2291 2289 2732 3437 4031 -4031"/>
        </routeDistribution>
    </vehicle>
    <vehicle id="33" depart="29.00" type="DEFAULT_VEHTYPE" fromTaz="2872" toTaz="-4027" departLane="free" departSpeed="max">
        <routeDistribution>
            <route cost="165.40" probability="1.00000000" edges="2872 -2412 -535 -365 -344 -125 123 338 505 597 684 2289 2732 3437 4027 -4027"/>
        </routeDistribution>
    </vehicle>
    <vehicle id="35" depart="30.00" type="DEFAULT_VEHTYPE" fromTaz="674" toTaz="138" departLane="free" departSpeed="max">
        <routeDistribution>
            <route cost="101.52" probability="1.00000000" edges="674 -837 -330 -119 -15 13 -17 25 138"/>
        </routeDistribution>
    </vehicle>
    <vehicle id="36" depart="33.00" type="DEFAULT_VEHTYPE" fromTaz="-2724" toTaz="117" departLane="free" departSpeed="max">
        <routeDistribution>
            <route cost="58.55" probability="1.00000000" edges="-2724 -650 -592 -332 -119 117"/>
        </routeDistribution>
    </vehicle>
    <vehicle id="37" depart="34.00" type="DEFAULT_VEHTYPE" fromTaz="-1373" toTaz="-2903" departLane="free" departSpeed="max">
        <routeDistribution>
            <route cost="195.20" probability="1.00000000" edges="-1373 1359 -876 -639 -319 -38 -17 25 128 383 579 618 867 2158 2423 2903 -2903"/>
        </routeDistribution>
    </vehicle>
    <vehicle id="39" depart="35.00" type="DEFAULT_VEHTYPE" fromTaz="-1493" toTaz="730" departLane="free" departSpeed="max">
        <routeDistribution>
            <route cost="80.76" probability="1.00000000" edges="-1493 -1425 -1357 -880 -639 623 730"/>
        </routeDistribution>
    </vehicle>
    <vehicle id="38" depart="35.00" type="DEFAULT_VEHTYPE" fromTaz="-674" toTaz="4467" departLane="free" departSpeed="max">
        <routeDistribution>
            <route cost="194.91" probability="1.00000000" edges="-674 -592 -332 -119 -15 13 -17 25 128 383 579 618 867 2158 2423 2895 3742 4467"/>
        </routeDistribution>
    </vehicle>
    <vehicle id="40" depart="36.00" type="DEFAULT_VEHTYPE" fromTaz="589" toTaz="-2607" departLane="free" departSpeed="max">
        <routeDistribution>
            <route cost="72.03" probability="1.00000000" edges="589 -1415 -1357 -1767 2447 -2607"/>
        </routeDistribution>
    </vehicle>
    <vehicle id="41" depart="38.00" type="DEFAULT_VEHTYPE" fromTaz="-3920" toTaz="3740" departLane="free" departSpeed="max">
        <routeDistribution>
            <route cost="149.19" probability="1.00000000" edges="-3920 -2724 848 3252 -3773 -1201 1199 -1343 1342 1345 1404 3737 -3739 3740"/>
        </routeDistribution>
    </vehicle>
    <vehicle id="42" depart="38.00" type="DEFAULT_VEHTYPE" fromTaz="3603" toTaz="-1882" departLane="free" departSpeed="max">
        <routeDistribution>
            <route cost="170.88" probability="1.00000000" edges="3603 -3603 -1464 -1388 -533 -365 -344 -125 121 326 -313 -117 119 330 -2200 -1882"/>
        </routeDistribution>
    </vehicle>
    <vehicle id="44" depart="40.00" type="DEFAULT_VEHTYPE" fromTaz="2482" toTaz="1396" departLane="free" departSpeed="max">
        <routeDistribution>
            <route cost="191.21" probability="1.00000000" edges="2482 -2482 -2185 2186 2200 -330 -119 -15 -3 11 728 1029 1093 1342 1345 1396"/>
        </routeDistribution>
    </vehicle>
    <vehicle id="43" depart="40.00" type="DEFAULT_VEHTYPE" fromTaz="3814" toTaz="-608" departLane="free" departSpeed="max">
        <routeDistribution>
            <route cost="224.35" probability="1.00000000" edges="3814 -3814 -3800 3091 3779 -2482 -2185 2186 2200 -330 -119 -15 13 -17 25 128 383 579 614 -608"/>
        </routeDistribution>
    </vehicle>
    <vehicle id="45" depart="41.00" type="DEFAULT_VEHTYPE" fromTaz="-1201" toTaz="-64" departLane="free" departSpeed="max">
        <routeDistribution>
            <route cost="86.48" probability="1.00000000" edges="-1201 -1027 -698 -11 3 13 64 -64"/>
        </routeDistribution>
    </vehicle>
    <vehicle id="46" depart="41.00" type="DEFAULT_VEHTYPE" fromTaz="3095" toTaz="-569" departLane="free" departSpeed="max">
        <routeDistribution>
            <route cost="237.94" probability="1.00000000" edges="3095 -3095 -2453 2449 -2194 -1950 -1942 -1883 -1526 1524 1533 -1494 1357 1415 -523 -338 -123 125 344 365 569 -569"/>
        </routeDistribution>
    </vehicle>
    <vehicle id="47" depart="42.00" type="DEFAULT_VEHTYPE" fromTaz="4495" toTaz="1882" departLane="free" departSpeed="max">
        <routeDistribution>
            <route cost="221.05" probability="1.00000000" edges="4495 -4495 -2903 -2423 -2158 -867 -618 -579 -383 -128 -25 17 -13 15 119 330 -2200 -1882 1882"/>
        </routeDistribution>
    </vehicle>
    <vehicle id="49" depart="43.00" type="DEFAULT_VEHTYPE" fromTaz="-2482" toTaz="-3814" departLane="free" departSpeed="max">
        <routeDistribution>
            <route cost="80.88" probability="1.00000000" edges="-2482 2482 -3779 -3091 3800 3814 -3814"/>
        </routeDistribution>
    </vehicle>
    <vehicle id="48" depart="43.00" type="DEFAULT_VEHTYPE" fromTaz="1935" toTaz="-3773" departLane="free" departSpeed="max">
        <routeDistribution>
            <route cost="145.46" probability="1.00000000" edges="1935 -1935 -1775 1774 1882 2200 837 -674 650 848 3252 -3773"/>
        </routeDistribution>
    </vehicle>
    <vehicle id="50" depart="44.00" type="DEFAULT_VEHTYPE" fromTaz="-4049" toTaz="-2766" departLane="free" departSpeed="max">
        <routeDistribution>
            <route cost="48.85" probability="1.00000000" edges="-4049 -3437 3435 3438 -2766"/>
        </routeDistribution>
    </vehicle>
    <vehicle id="51" depart="46.00" type="DEFAULT_VEHTYPE" fromTaz="-3883" toTaz="125" departLane="free" departSpeed="max">
        <routeDistribution>
            <route cost="169.97" probability="1.00000000" edges="-3883 -3137 -2502 -2206 2202 -2168 -1930 1767 1357 1415 -523 -338 -123 125"/>
        </routeDistribution>
    </vehicle>
    <vehicle id="52" depart="47.00" type="DEFAULT_VEHTYPE" fromTaz="-2732" toTaz="3764" departLane="free" departSpeed="max">
        <routeDistribution>
            <route cost="177.04" probability="1.00000000" edges="-2732 -2289 -684 -597 -505 -338 -123 125 344 365 535 2412 2873 2979 -3764 -2969 2969 3764"/>
        </routeDistribution>
    </vehicle>
    <vehicle id="53" depart="47.00" type="DEFAULT_VEHTYPE" fromTaz="2206" toTaz="-882" departLane="free" departSpeed="max">
        <routeDistribution>
            <route cost="119.34" probability="1.00000000" edges="2206 -2206 2202 -2168 -1930 1767 -880 882 -882"/>
        </routeDistribution>
    </vehicle>
    <vehicle id="54" depart="48.00" type="DEFAULT_VEHTYPE" fromTaz="-696" toTaz="13" departLane="free" departSpeed="max">
        <routeDistribution>
            <route cost="40.59" probability="1.00000000" edges="-696 -11 3 13"/>
        </routeDistribution>
    </vehicle>
    <vehicle id="55" depart="50.00" type="DEFAULT_VEHTYPE" fromTaz="-117" toTaz="1783" departLane="free" departSpeed="max">
        <routeDistribution>
            <route cost="95.02" probability="1.00000000" edges="-117 119 330 -2200 -1882 -1523 1517 1783"/>
        </routeDistribution>
    </vehicle>
    <vehicle id="57" depart="52.00" type="DEFAULT_VEHTYPE" fromTaz="121" toTaz="-1425" departLane="free" departSpeed="max">
        <routeDistribution>
            <route cost="97.55" probability="1.00000000" edges="121 326 -313 325 589 -1415 1425 -1425"/>
        </routeDistribution>
    </vehicle>
    <vehicle id="56" depart="52.00" type="DEFAULT_VEHTYPE" fromTaz="4495" toTaz="-2166" departLane="free" departSpeed="max">
        <routeDistribution>
            <route cost="226.19" probability="0.15789474" edges="4495 -4495 -2903 -2423 -2158 -867 -618 -579 -383 -128 126 -125 123 338 523 -1415 -1357 -1767 1930 -2166"/>
            <route cost="226.19" probability="0.05263158" edges="4495 -4495 -2903 -2423 -2158 -867 -618 -579 -383 -128 -25 19 123 338 523 -1415 -1357 -1767 1930 -2166"/>
            <route cost="226.16" probability="0.78947368" edges="4495 -4495 -2903 -2423 -2158 -867 -618 613 -585 349 -344 -125 123 338 523 -1415 -1357 -1767 1930 -2166"/>
        </routeDistribution>
    </vehicle>
    <vehicle id="59" depart="53.00" type="DEFAULT_VEHTYPE" fromTaz="-2903" toTaz="728" departLane="free" departSpeed="max">
        <routeDistribution>
            <route cost="104.87" probability="1.00000000" edges="-2903 -2423 -2158 1919 -2149 -608 612 1005 -1029 -728 728"/>
        </routeDistribution>
    </vehicle>
    <vehicle id="58" depart="53.00" type="DEFAULT_VEHTYPE" fromTaz="2112" toTaz="-618" departLane="free" departSpeed="max">
        <routeDistribution>
            <route cost="198.79" probability="1.00000000" edges="2112 -2112 -1891 -1526 1524 1533 1535 -876 -639 -319 -38 -17 25 128 383 579 618 -618"/>
        </routeDistribution>
    </vehicle>
    <vehicle id="61" depart="54.00" type="DEFAULT_VEHTYPE" fromTaz="2421" toTaz="2872" departLane="free" departSpeed="max">
        <routeDistribution>
            <route cost="101.52" probability="1.00000000" edges="2421 -2421 -2149 -614 618 2439 -2873 -2872 2872"/>
        </routeDistribution>
    </vehicle>
    <vehicle id="60" depart="54.00" type="DEFAULT_VEHTYPE" fromTaz="492" toTaz="338" departLane="free" departSpeed="max">
        <routeDistribution>
            <route cost="53.37" probability="1.00000000" edges="492 570 -125 123 338"/>
        </routeDistribution>
    </vehicle>
    <vehicle id="62" depart="54.00" type="DEFAULT_VEHTYPE" fromTaz="9" toTaz="3814" departLane="free" departSpeed="max">
        <routeDistribution>
            <route cost="170.10" probability="1.00000000" edges="9 17 -13 15 119 330 -2200 -2186 2185 2482 -3779 -3091 3800 3814"/>
        </routeDistribution>
    </vehicle>
    <vehicle id="63" depart="57.00" type="DEFAULT_VEHTYPE" fromTaz="2194" toTaz="2112" departLane="free" departSpeed="max">
        <routeDistribution>
            <route cost="86.85" probability="1.00000000" edges="2194 -2449 2449 -2194 -1950 -1942 -1883 1891 2112"/>
        </routeDistribution>
    </vehicle>
    <vehicle id="65" depart="58.00" type="DEFAULT_VEHTYPE" fromTaz="1323" toTaz="2449" departLane="free" departSpeed="max">
        <routeDistribution>
            <route cost="90.72" probability="1.00000000" edges="1323 1363 1429 1517 1797 1950 2194 -2449 2449"/>
        </routeDistribution>
    </vehicle>
    <vehicle id="64" depart="58.00" type="DEFAULT_VEHTYPE" fromTaz="3772" toTaz="-2201" departLane="free" departSpeed="max">
        <routeDistribution>
            <route cost="173.42" probability="1.00000000" edges="3772 -3162 -848 -650 674 -837 -2200 -1882 -1523 1517 1783 -1883 1891 2112 -2201"/>
        </routeDistribution>
    </vehicle>
    <vehicle id="66" depart="59.00" type="DEFAULT_VEHTYPE" fromTaz="-319" toTaz="642" departLane="free" departSpeed="max">
        <routeDistribution>
            <route cost="59.40" probability="1.00000000" edges="-319 -117 119 332 592 642"/>
        </routeDistribution>
    </vehicle>
    <vehicle id="67" depart="60.00" type="DEFAULT_VEHTYPE" fromTaz="4681" toTaz="625" departLane="free" departSpeed="max">
        <routeDistribution>
            <route cost="87.51" probability="1.00000000" edges="4681 -4681 -698 -11 3 15 117 319 625"/>
        </routeDistribution>
    </vehicle>
    <vehicle id="68" depart="61.00" type="DEFAULT_VEHTYPE" fromTaz="2285" toTaz="2732" departLane="free" departSpeed="max">
        <routeDistribution>
            <route cost="118.54" probability="1.00000000" edges="2285 -2285 -837 -330 -119 117 325 589 -4050 -3497 -2766 2732"/>
        </routeDistribution>
    </vehicle>
    <vehicle id="69" depart="62.00" type="DEFAULT_VEHTYPE" fromTaz="-3837" toTaz="-3131" departLane="free" departSpeed="max">
        <routeDistribution>
            <route cost="23.98" probability="1.00000000" edges="-3837 -3131"/>
        </routeDistribution>
    </vehicle>
    <vehicle id="70" depart="64.00" type="DEFAULT_VEHTYPE" fromTaz="-1057" toTaz="2206" departLane="free" departSpeed="max">
        <routeDistribution>
            <route cost="102.10" probability="1.00000000" edges="-1057 -1415 -1357 -1767 1930 2168 -2202 2206"/>
        </routeDistribution>
    </vehicle>
    <vehicle id="71" depart="66.00" type="DEFAULT_VEHTYPE" fromTaz="-1359" toTaz="1919" departLane="free" departSpeed="max">
        <routeDistribution>
            <route cost="166.94" probability="1.00000000" edges="-1359 1359 -876 -639 -319 -38 -17 25 128 383 579 618 867 1919"/>
        </routeDistribution>
    </vehicle>
    <vehicle id="72" depart="67.00" type="DEFAULT_VEHTYPE" fromTaz="-3744" toTaz="1783" departLane="free" departSpeed="max">
        <routeDistribution>
            <route cost="228.71" probability="1.00000000" edges="-3744 -2895 -2423 -2158 -867 -618 -579 -383 -128 -25 17 38 319 639 876 -1359 1363 1429 1517 1783"/>
        </routeDistribution>
    </vehicle>
    <vehicle id="73" depart="68.00" type="DEFAULT_VEHTYPE" fromTaz="-579" toTaz="-3799" departLane="free" departSpeed="max">
        <routeDistribution>
            <route cost="200.76" probability="1.00000000" edges="-579 -383 -128 -25 17 -13 15 119 330 -2200 -2186 2185 2482 -3779 -3091 3801 -3799"/>
        </routeDistribution>
    </vehicle>
    <vehicle id="74" depart="70.00" type="DEFAULT_VEHTYPE" fromTaz="-2881" toTaz="4469" departLane="free" departSpeed="max">
        <routeDistribution>
            <route cost="91.55" probability="1.00000000" edges="-2881 2881 3740 -2961 2895 3742 4469"/>
        </routeDistribution>
    </vehicle>
    <vehicle id="76" depart="71.00" type="DEFAULT_VEHTYPE" fromTaz="-4027" toTaz="4258" departLane="free" departSpeed="max">
        <routeDistribution>
            <route cost="161.49" probability="1.00000000" edges="-4027 -3437 -2732 -2289 -684 -597 -505 -338 -123 125 344 365 533 1388 1464 3611 4258"/>
        </routeDistribution>
    </vehicle>
    <vehicle id="75" depart="71.00" type="DEFAULT_VEHTYPE" fromTaz="4469" toTaz="-1493" departLane="free" departSpeed="max">
        <routeDistribution>
            <route cost="225.24" probability="0.15789474" edges="4469 -4469 -3742 -2895 -2423 -2158 -867 -618 -579 -383 -128 126 -125 123 338 523 -1415 -1357 -1767 -1493"/>
            <route cost="225.24" probability="0.05263158" edges="4469 -4469 -3742 -2895 -2423 -2158 -867 -618 -579 -383 -128 -25 19 123 338 523 -1415 -1357 -1767 -1493"/>
            <route cost="225.20" probability="0.78947368" edges="4469 -4469 -3742 -2895 -2423 -2158 -867 -618 613 -585 349 -344 -125 123 338 523 -1415 -1357 -1767 -1493"/>
        </routeDistribution>
    </vehicle>
    <vehicle id="77" depart="71.00" type="DEFAULT_VEHTYPE" fromTaz="621" toTaz="-3883" departLane="free" departSpeed="max">
        <routeDistribution>
            <route cost="155.70" probability="1.00000000" edges="621 -621 639 880 -1767 1930 2168 -2202 2206 2502 3137 3883 -3883"/>
        </routeDistribution>
    </vehicle>
    <vehicle id="80" depart="72.00" type="DEFAULT_VEHTYPE" fromTaz="-837" toTaz="9" departLane="free" departSpeed="max">
        <routeDistribution>
            <route cost="68.08" probability="1.00000000" edges="-837 -330 -119 -15 -3 9"/>
        </routeDistribution>
    </vehicle>
    <vehicle id="79" depart="72.00" type="DEFAULT_VEHTYPE" fromTaz="1447" toTaz="1524" departLane="free" departSpeed="max">
        <routeDistribution>
            <route cost="41.27" probability="1.00000000" edges="1447 -1533 -1524 1524"/>
        </routeDistribution>
    </vehicle>
    <vehicle id="78" depart="72.00" type="DEFAULT_VEHTYPE" fromTaz="2128" toTaz="2006" departLane="free" departSpeed="max">
        <routeDistribution>
            <route cost="64.03" probability="1.00000000" edges="2128 -2128 -1891 1883 1942 2006"/>
        </routeDistribution>
    </vehicle>
    <vehicle id="81" depart="73.00" type="DEFAULT_VEHTYPE" fromTaz="-3920" toTaz="1950" departLane="free" departSpeed="max">
        <routeDistribution>
            <route cost="134.48" probability="1.00000000" edges="-3920 -2724 -650 674 -837 -2200 -1882 -1523 1517 1797 1950"/>
        </routeDistribution>
    </vehicle>
    <vehicle id="82" depart="73.00" type="DEFAULT_VEHTYPE" fromTaz="4474" toTaz="-15" departLane="free" departSpeed="max">
        <routeDistribution>
            <route cost="149.47" probability="1.00000000" edges="4474 -2963 2969 3764 -2979 -2439 -618 -579 -383 -128 -25 17 -13 15 -15"/>
        </routeDistribution>
    </vehicle>
    <vehicle id="83" depart="73.00" type="DEFAULT_VEHTYPE" fromTaz="728" toTaz="-3885" departLane="free" departSpeed="max">
        <routeDistribution>
            <route cost="186.38" probability="1.00000000" edges="728 -728 -11 3 15 117 319 639 876 -1535 -1533 -1524 1526 1891 2112 3145 3885 -3885"/>
        </routeDistribution>
    </vehicle>
    <vehicle id="84" depart="74.00" type="DEFAULT_VEHTYPE" fromTaz="-138" toTaz="674" departLane="free" departSpeed="max">
        <routeDistribution>
            <route cost="94.10" probability="1.00000000" edges="-138 -25 17 -13 15 119 332 592 674"/>
        </routeDistribution>
    </vehicle>
    <vehicle id="85" depart="75.00" type="DEFAULT_VEHTYPE" fromTaz="-3603" toTaz="650" departLane="free" departSpeed="max">
        <routeDistribution>
            <route cost="143.95" probability="1.00000000" edges="-3603 -1464 -1388 -533 -365 -344 -125 121 326 -313 -117 119 332 592 650"/>
        </routeDistribution>
    </vehicle>
    <vehicle id="86" depart="76.00" type="DEFAULT_VEHTYPE" fromTaz="-3162" toTaz="-326" departLane="free" departSpeed="max">
        <routeDistribution>
            <route cost="81.29" probability="1.00000000" edges="-3162 -848 -650 -592 -332 -119 117 313 -326"/>
        </routeDistribution>
    </vehicle>
    <vehicle id="87" depart="77.00" type="DEFAULT_VEHTYPE" fromTaz="4505" toTaz="592" departLane="free" departSpeed="max">
        <routeDistribution>
            <route cost="192.59" probability="1.00000000" edges="4505 -4505 -4495 -2903 -2423 -2158 -867 -618 -579 -383 -128 -25 17 -13 15 119 332 592"/>
        </routeDistribution>
    </vehicle>